/*---------------------------------------------------------------------------*\
  =========                 |
  \\      /  F ield         | OpenFOAM: The Open Source CFD Toolbox
   \\    /   O peration     | Website:  https://openfoam.org
    \\  /    A nd           | Version:  8
     \\/     M anipulation  |
\*---------------------------------------------------------------------------*/
Build  : 8
Exec   : blockMesh
Date   : Nov 05 2022
Time   : 15:51:57
Host   : "compute013.int.augusta.nottingham.ac.uk"
PID    : 94391
I/O    : uncollated
Case   : /gpfs01/home/pmxep5/PGSFlowTransport/tutorials/RESULTS/Herten/varPeclet/highPeclet
nProcs : 1
sigFpe : Enabling floating point exception trapping (FOAM_SIGFPE).
fileModificationChecking : Monitoring run-time modified files using timeStampMaster (fileModificationSkew 10)
allowSystemOperations : Allowing user-supplied system call operations

// * * * * * * * * * * * * * * * * * * * * * * * * * * * * * * * * * * * * * //
Create time

Creating block mesh from
    "system/blockMeshDict"
Creating block edges
No non-planar block faces defined
Creating topology blocks
Creating topology patches

Creating block mesh topology

Check topology

	Basic statistics
		Number of internal faces : 0
		Number of boundary faces : 6
		Number of defined boundary faces : 6
		Number of undefined boundary faces : 0
	Checking patch -> block consistency

Creating block offsets
Creating merge list .

Creating polyMesh from blockMesh
Creating patches
Creating cells
Creating points with scale 1
    Block 0 cell size :
        i : 0.05 .. 0.05
        j : 0.05 .. 0.05
        k : 0.05 .. 0.05

Writing polyMesh
----------------
Mesh Information
----------------
  boundingBox: (0 0 0) (16 10 7)
  nPoints: 9097461
  nCells: 8960000
  nFaces: 27016800
  nInternalFaces: 26743200
----------------
Patches
----------------
  patch 0 (start: 26743200 size: 28000) name: inlet
  patch 1 (start: 26771200 size: 28000) name: outlet
  patch 2 (start: 26799200 size: 64000) name: lowerWall
  patch 3 (start: 26863200 size: 64000) name: upperWall
  patch 4 (start: 26927200 size: 89600) name: frontAndBack

End

/*---------------------------------------------------------------------------*\
  =========                 |
  \\      /  F ield         | OpenFOAM: The Open Source CFD Toolbox
   \\    /   O peration     | Website:  https://openfoam.org
    \\  /    A nd           | Version:  8
     \\/     M anipulation  |
\*---------------------------------------------------------------------------*/
Build  : 8
Exec   : decomposePar
Date   : Nov 05 2022
Time   : 15:52:50
Host   : "compute013.int.augusta.nottingham.ac.uk"
PID    : 94499
I/O    : uncollated
Case   : /gpfs01/home/pmxep5/PGSFlowTransport/tutorials/RESULTS/Herten/varPeclet/highPeclet
nProcs : 1
sigFpe : Enabling floating point exception trapping (FOAM_SIGFPE).
fileModificationChecking : Monitoring run-time modified files using timeStampMaster (fileModificationSkew 10)
allowSystemOperations : Allowing user-supplied system call operations

// * * * * * * * * * * * * * * * * * * * * * * * * * * * * * * * * * * * * * //
Create time



Decomposing mesh region0

Create mesh

Calculating distribution of cells
Selecting decompositionMethod simple

Finished decomposition in 5.66 s

Calculating original mesh data

Distributing cells to processors

Distributing faces to processors

Distributing points to processors

Constructing processor meshes

Processor 0
    Number of cells = 94000
    Number of faces shared with processor 1 = 2350
    Number of faces shared with processor 8 = 1880
    Number of faces shared with processor 32 = 2000
    Number of processor patches = 3
    Number of processor faces = 6230
    Number of boundary faces = 6230

Processor 1
    Number of cells = 94000
    Number of faces shared with processor 0 = 2350
    Number of faces shared with processor 2 = 2350
    Number of faces shared with processor 9 = 1880
    Number of faces shared with processor 33 = 2000
    Number of processor patches = 4
    Number of processor faces = 8580
    Number of boundary faces = 3880

Processor 2
    Number of cells = 94000
    Number of faces shared with processor 1 = 2350
    Number of faces shared with processor 3 = 2350
    Number of faces shared with processor 10 = 1880
    Number of faces shared with processor 34 = 2000
    Number of processor patches = 4
    Number of processor faces = 8580
    Number of boundary faces = 3880

Processor 3
    Number of cells = 94000
    Number of faces shared with processor 2 = 2350
    Number of faces shared with processor 4 = 2350
    Number of faces shared with processor 11 = 1880
    Number of faces shared with processor 35 = 2000
    Number of processor patches = 4
    Number of processor faces = 8580
    Number of boundary faces = 3880

Processor 4
    Number of cells = 94000
    Number of faces shared with processor 3 = 2350
    Number of faces shared with processor 5 = 2350
    Number of faces shared with processor 12 = 1880
    Number of faces shared with processor 36 = 2000
    Number of processor patches = 4
    Number of processor faces = 8580
    Number of boundary faces = 3880

Processor 5
    Number of cells = 94000
    Number of faces shared with processor 4 = 2350
    Number of faces shared with processor 6 = 2350
    Number of faces shared with processor 13 = 1880
    Number of faces shared with processor 37 = 2000
    Number of processor patches = 4
    Number of processor faces = 8580
    Number of boundary faces = 3880

Processor 6
    Number of cells = 93864
    Number of faces shared with processor 5 = 2350
    Number of faces shared with processor 7 = 2332
    Number of faces shared with processor 14 = 1863
    Number of faces shared with processor 38 = 2032
    Number of faces shared with processor 39 = 2
    Number of faces shared with processor 46 = 1
    Number of processor patches = 6
    Number of processor faces = 8580
    Number of boundary faces = 3880

Processor 7
    Number of cells = 92528
    Number of faces shared with processor 6 = 2332
    Number of faces shared with processor 15 = 1840
    Number of faces shared with processor 39 = 2064
    Number of processor patches = 3
    Number of processor faces = 6236
    Number of boundary faces = 6172

Processor 8
    Number of cells = 94000
    Number of faces shared with processor 0 = 1880
    Number of faces shared with processor 9 = 2350
    Number of faces shared with processor 16 = 1880
    Number of faces shared with processor 40 = 2000
    Number of processor patches = 4
    Number of processor faces = 8110
    Number of boundary faces = 4350

Processor 9
    Number of cells = 94000
    Number of faces shared with processor 1 = 1880
    Number of faces shared with processor 8 = 2350
    Number of faces shared with processor 10 = 2350
    Number of faces shared with processor 17 = 1880
    Number of faces shared with processor 41 = 2000
    Number of processor patches = 5
    Number of processor faces = 10460
    Number of boundary faces = 2000

Processor 10
    Number of cells = 94000
    Number of faces shared with processor 2 = 1880
    Number of faces shared with processor 9 = 2350
    Number of faces shared with processor 11 = 2350
    Number of faces shared with processor 18 = 1880
    Number of faces shared with processor 42 = 2000
    Number of processor patches = 5
    Number of processor faces = 10460
    Number of boundary faces = 2000

Processor 11
    Number of cells = 94000
    Number of faces shared with processor 3 = 1880
    Number of faces shared with processor 10 = 2350
    Number of faces shared with processor 12 = 2350
    Number of faces shared with processor 19 = 1880
    Number of faces shared with processor 43 = 2000
    Number of processor patches = 5
    Number of processor faces = 10460
    Number of boundary faces = 2000

Processor 12
    Number of cells = 94000
    Number of faces shared with processor 4 = 1880
    Number of faces shared with processor 11 = 2350
    Number of faces shared with processor 13 = 2350
    Number of faces shared with processor 20 = 1880
    Number of faces shared with processor 44 = 2000
    Number of processor patches = 5
    Number of processor faces = 10460
    Number of boundary faces = 2000

Processor 13
    Number of cells = 93649
    Number of faces shared with processor 5 = 1880
    Number of faces shared with processor 12 = 2350
    Number of faces shared with processor 14 = 2323
    Number of faces shared with processor 21 = 1853
    Number of faces shared with processor 45 = 2052
    Number of faces shared with processor 46 = 1
    Number of faces shared with processor 53 = 1
    Number of processor patches = 7
    Number of processor faces = 10460
    Number of boundary faces = 2000

Processor 14
    Number of cells = 92276
    Number of faces shared with processor 6 = 1863
    Number of faces shared with processor 13 = 2323
    Number of faces shared with processor 15 = 2300
    Number of faces shared with processor 22 = 1840
    Number of faces shared with processor 46 = 2046
    Number of processor patches = 5
    Number of processor faces = 10372
    Number of boundary faces = 2000

Processor 15
    Number of cells = 92000
    Number of faces shared with processor 7 = 1840
    Number of faces shared with processor 14 = 2300
    Number of faces shared with processor 23 = 1840
    Number of faces shared with processor 47 = 2000
    Number of processor patches = 4
    Number of processor faces = 7980
    Number of boundary faces = 4300

Processor 16
    Number of cells = 94000
    Number of faces shared with processor 8 = 1880
    Number of faces shared with processor 17 = 2350
    Number of faces shared with processor 24 = 1880
    Number of faces shared with processor 48 = 2000
    Number of processor patches = 4
    Number of processor faces = 8110
    Number of boundary faces = 4350

Processor 17
    Number of cells = 94000
    Number of faces shared with processor 9 = 1880
    Number of faces shared with processor 16 = 2350
    Number of faces shared with processor 18 = 2350
    Number of faces shared with processor 25 = 1880
    Number of faces shared with processor 49 = 2000
    Number of processor patches = 5
    Number of processor faces = 10460
    Number of boundary faces = 2000

Processor 18
    Number of cells = 94000
    Number of faces shared with processor 10 = 1880
    Number of faces shared with processor 17 = 2350
    Number of faces shared with processor 19 = 2350
    Number of faces shared with processor 26 = 1880
    Number of faces shared with processor 50 = 2000
    Number of processor patches = 5
    Number of processor faces = 10460
    Number of boundary faces = 2000

Processor 19
    Number of cells = 94000
    Number of faces shared with processor 11 = 1880
    Number of faces shared with processor 18 = 2350
    Number of faces shared with processor 20 = 2350
    Number of faces shared with processor 27 = 1880
    Number of faces shared with processor 51 = 2000
    Number of processor patches = 5
    Number of processor faces = 10460
    Number of boundary faces = 2000

Processor 20
    Number of cells = 93334
    Number of faces shared with processor 12 = 1880
    Number of faces shared with processor 19 = 2350
    Number of faces shared with processor 21 = 2313
    Number of faces shared with processor 28 = 1843
    Number of faces shared with processor 52 = 2072
    Number of faces shared with processor 53 = 1
    Number of faces shared with processor 60 = 1
    Number of processor patches = 7
    Number of processor faces = 10460
    Number of boundary faces = 2000

Processor 21
    Number of cells = 92091
    Number of faces shared with processor 13 = 1853
    Number of faces shared with processor 20 = 2313
    Number of faces shared with processor 22 = 2300
    Number of faces shared with processor 29 = 1840
    Number of faces shared with processor 53 = 2026
    Number of processor patches = 5
    Number of processor faces = 10332
    Number of boundary faces = 2000

Processor 22
    Number of cells = 92000
    Number of faces shared with processor 14 = 1840
    Number of faces shared with processor 21 = 2300
    Number of faces shared with processor 23 = 2300
    Number of faces shared with processor 30 = 1840
    Number of faces shared with processor 54 = 2000
    Number of processor patches = 5
    Number of processor faces = 10280
    Number of boundary faces = 2000

Processor 23
    Number of cells = 92000
    Number of faces shared with processor 15 = 1840
    Number of faces shared with processor 22 = 2300
    Number of faces shared with processor 31 = 1840
    Number of faces shared with processor 55 = 2000
    Number of processor patches = 4
    Number of processor faces = 7980
    Number of boundary faces = 4300

Processor 24
    Number of cells = 94000
    Number of faces shared with processor 16 = 1880
    Number of faces shared with processor 25 = 2350
    Number of faces shared with processor 56 = 2000
    Number of processor patches = 3
    Number of processor faces = 6230
    Number of boundary faces = 6230

Processor 25
    Number of cells = 94000
    Number of faces shared with processor 17 = 1880
    Number of faces shared with processor 24 = 2350
    Number of faces shared with processor 26 = 2350
    Number of faces shared with processor 57 = 2000
    Number of processor patches = 4
    Number of processor faces = 8580
    Number of boundary faces = 3880

Processor 26
    Number of cells = 93979
    Number of faces shared with processor 18 = 1880
    Number of faces shared with processor 25 = 2350
    Number of faces shared with processor 27 = 2343
    Number of faces shared with processor 58 = 2012
    Number of faces shared with processor 59 = 1
    Number of processor patches = 5
    Number of processor faces = 8586
    Number of boundary faces = 3874

Processor 27
    Number of cells = 92940
    Number of faces shared with processor 19 = 1880
    Number of faces shared with processor 26 = 2343
    Number of faces shared with processor 28 = 2303
    Number of faces shared with processor 59 = 2079
    Number of faces shared with processor 60 = 1
    Number of processor patches = 5
    Number of processor faces = 8606
    Number of boundary faces = 3840

Processor 28
    Number of cells = 92006
    Number of faces shared with processor 20 = 1843
    Number of faces shared with processor 27 = 2303
    Number of faces shared with processor 29 = 2300
    Number of faces shared with processor 60 = 2006
    Number of processor patches = 4
    Number of processor faces = 8452
    Number of boundary faces = 3840

Processor 29
    Number of cells = 92000
    Number of faces shared with processor 21 = 1840
    Number of faces shared with processor 28 = 2300
    Number of faces shared with processor 30 = 2300
    Number of faces shared with processor 61 = 2000
    Number of processor patches = 4
    Number of processor faces = 8440
    Number of boundary faces = 3840

Processor 30
    Number of cells = 92000
    Number of faces shared with processor 22 = 1840
    Number of faces shared with processor 29 = 2300
    Number of faces shared with processor 31 = 2300
    Number of faces shared with processor 62 = 2000
    Number of processor patches = 4
    Number of processor faces = 8440
    Number of boundary faces = 3840

Processor 31
    Number of cells = 92000
    Number of faces shared with processor 23 = 1840
    Number of faces shared with processor 30 = 2300
    Number of faces shared with processor 63 = 2000
    Number of processor patches = 3
    Number of processor faces = 6140
    Number of boundary faces = 6140

Processor 32
    Number of cells = 94000
    Number of faces shared with processor 0 = 2000
    Number of faces shared with processor 33 = 2350
    Number of faces shared with processor 40 = 1880
    Number of faces shared with processor 64 = 2000
    Number of processor patches = 4
    Number of processor faces = 8230
    Number of boundary faces = 4230

Processor 33
    Number of cells = 94000
    Number of faces shared with processor 1 = 2000
    Number of faces shared with processor 32 = 2350
    Number of faces shared with processor 34 = 2350
    Number of faces shared with processor 41 = 1880
    Number of faces shared with processor 65 = 2000
    Number of processor patches = 5
    Number of processor faces = 10580
    Number of boundary faces = 1880

Processor 34
    Number of cells = 94000
    Number of faces shared with processor 2 = 2000
    Number of faces shared with processor 33 = 2350
    Number of faces shared with processor 35 = 2350
    Number of faces shared with processor 42 = 1880
    Number of faces shared with processor 66 = 2000
    Number of processor patches = 5
    Number of processor faces = 10580
    Number of boundary faces = 1880

Processor 35
    Number of cells = 93994
    Number of faces shared with processor 3 = 2000
    Number of faces shared with processor 34 = 2350
    Number of faces shared with processor 36 = 2346
    Number of faces shared with processor 43 = 1876
    Number of faces shared with processor 67 = 2006
    Number of faces shared with processor 68 = 1
    Number of faces shared with processor 75 = 1
    Number of processor patches = 7
    Number of processor faces = 10580
    Number of boundary faces = 1880

Processor 36
    Number of cells = 93060
    Number of faces shared with processor 4 = 2000
    Number of faces shared with processor 35 = 2346
    Number of faces shared with processor 37 = 2306
    Number of faces shared with processor 44 = 1840
    Number of faces shared with processor 68 = 2079
    Number of faces shared with processor 69 = 1
    Number of processor patches = 6
    Number of processor faces = 10572
    Number of boundary faces = 1880

Processor 37
    Number of cells = 92021
    Number of faces shared with processor 5 = 2000
    Number of faces shared with processor 36 = 2306
    Number of faces shared with processor 38 = 2300
    Number of faces shared with processor 45 = 1840
    Number of faces shared with processor 69 = 2012
    Number of processor patches = 5
    Number of processor faces = 10458
    Number of boundary faces = 1846

Processor 38
    Number of cells = 92136
    Number of faces shared with processor 6 = 2032
    Number of faces shared with processor 37 = 2300
    Number of faces shared with processor 39 = 2316
    Number of faces shared with processor 46 = 1856
    Number of faces shared with processor 70 = 2000
    Number of processor patches = 5
    Number of processor faces = 10504
    Number of boundary faces = 1840

Processor 39
    Number of cells = 93472
    Number of faces shared with processor 6 = 2
    Number of faces shared with processor 7 = 2064
    Number of faces shared with processor 38 = 2316
    Number of faces shared with processor 47 = 1880
    Number of faces shared with processor 71 = 2000
    Number of processor patches = 5
    Number of processor faces = 8262
    Number of boundary faces = 4198

Processor 40
    Number of cells = 94000
    Number of faces shared with processor 8 = 2000
    Number of faces shared with processor 32 = 1880
    Number of faces shared with processor 41 = 2350
    Number of faces shared with processor 48 = 1880
    Number of faces shared with processor 72 = 2000
    Number of processor patches = 5
    Number of processor faces = 10110
    Number of boundary faces = 2350

Processor 41
    Number of cells = 94000
    Number of faces shared with processor 9 = 2000
    Number of faces shared with processor 33 = 1880
    Number of faces shared with processor 40 = 2350
    Number of faces shared with processor 42 = 2350
    Number of faces shared with processor 49 = 1880
    Number of faces shared with processor 73 = 2000
    Number of processor patches = 6
    Number of processor faces = 12460
    Number of boundary faces = 0

Processor 42
    Number of cells = 93909
    Number of faces shared with processor 10 = 2000
    Number of faces shared with processor 34 = 1880
    Number of faces shared with processor 41 = 2350
    Number of faces shared with processor 43 = 2336
    Number of faces shared with processor 50 = 1866
    Number of faces shared with processor 74 = 2026
    Number of faces shared with processor 75 = 1
    Number of faces shared with processor 82 = 1
    Number of processor patches = 8
    Number of processor faces = 12460
    Number of boundary faces = 0

Processor 43
    Number of cells = 92666
    Number of faces shared with processor 11 = 2000
    Number of faces shared with processor 35 = 1876
    Number of faces shared with processor 42 = 2336
    Number of faces shared with processor 44 = 2300
    Number of faces shared with processor 51 = 1840
    Number of faces shared with processor 75 = 2072
    Number of processor patches = 6
    Number of processor faces = 12424
    Number of boundary faces = 0

Processor 44
    Number of cells = 92000
    Number of faces shared with processor 12 = 2000
    Number of faces shared with processor 36 = 1840
    Number of faces shared with processor 43 = 2300
    Number of faces shared with processor 45 = 2300
    Number of faces shared with processor 52 = 1840
    Number of faces shared with processor 76 = 2000
    Number of processor patches = 6
    Number of processor faces = 12280
    Number of boundary faces = 0

Processor 45
    Number of cells = 92351
    Number of faces shared with processor 13 = 2052
    Number of faces shared with processor 37 = 1840
    Number of faces shared with processor 44 = 2300
    Number of faces shared with processor 46 = 2326
    Number of faces shared with processor 53 = 1866
    Number of faces shared with processor 77 = 2000
    Number of processor patches = 6
    Number of processor faces = 12384
    Number of boundary faces = 0

Processor 46
    Number of cells = 93724
    Number of faces shared with processor 6 = 1
    Number of faces shared with processor 13 = 1
    Number of faces shared with processor 14 = 2046
    Number of faces shared with processor 38 = 1856
    Number of faces shared with processor 45 = 2326
    Number of faces shared with processor 47 = 2350
    Number of faces shared with processor 54 = 1880
    Number of faces shared with processor 78 = 2000
    Number of processor patches = 8
    Number of processor faces = 12460
    Number of boundary faces = 0

Processor 47
    Number of cells = 94000
    Number of faces shared with processor 15 = 2000
    Number of faces shared with processor 39 = 1880
    Number of faces shared with processor 46 = 2350
    Number of faces shared with processor 55 = 1880
    Number of faces shared with processor 79 = 2000
    Number of processor patches = 5
    Number of processor faces = 10110
    Number of boundary faces = 2350

Processor 48
    Number of cells = 94000
    Number of faces shared with processor 16 = 2000
    Number of faces shared with processor 40 = 1880
    Number of faces shared with processor 49 = 2350
    Number of faces shared with processor 56 = 1880
    Number of faces shared with processor 80 = 2000
    Number of processor patches = 5
    Number of processor faces = 10110
    Number of boundary faces = 2350

Processor 49
    Number of cells = 93724
    Number of faces shared with processor 17 = 2000
    Number of faces shared with processor 41 = 1880
    Number of faces shared with processor 48 = 2350
    Number of faces shared with processor 50 = 2326
    Number of faces shared with processor 57 = 1856
    Number of faces shared with processor 81 = 2046
    Number of faces shared with processor 82 = 1
    Number of faces shared with processor 89 = 1
    Number of processor patches = 8
    Number of processor faces = 12460
    Number of boundary faces = 0

Processor 50
    Number of cells = 92351
    Number of faces shared with processor 18 = 2000
    Number of faces shared with processor 42 = 1866
    Number of faces shared with processor 49 = 2326
    Number of faces shared with processor 51 = 2300
    Number of faces shared with processor 58 = 1840
    Number of faces shared with processor 82 = 2052
    Number of processor patches = 6
    Number of processor faces = 12384
    Number of boundary faces = 0

Processor 51
    Number of cells = 92000
    Number of faces shared with processor 19 = 2000
    Number of faces shared with processor 43 = 1840
    Number of faces shared with processor 50 = 2300
    Number of faces shared with processor 52 = 2300
    Number of faces shared with processor 59 = 1840
    Number of faces shared with processor 83 = 2000
    Number of processor patches = 6
    Number of processor faces = 12280
    Number of boundary faces = 0

Processor 52
    Number of cells = 92666
    Number of faces shared with processor 20 = 2072
    Number of faces shared with processor 44 = 1840
    Number of faces shared with processor 51 = 2300
    Number of faces shared with processor 53 = 2336
    Number of faces shared with processor 60 = 1876
    Number of faces shared with processor 84 = 2000
    Number of processor patches = 6
    Number of processor faces = 12424
    Number of boundary faces = 0

Processor 53
    Number of cells = 93909
    Number of faces shared with processor 13 = 1
    Number of faces shared with processor 20 = 1
    Number of faces shared with processor 21 = 2026
    Number of faces shared with processor 45 = 1866
    Number of faces shared with processor 52 = 2336
    Number of faces shared with processor 54 = 2350
    Number of faces shared with processor 61 = 1880
    Number of faces shared with processor 85 = 2000
    Number of processor patches = 8
    Number of processor faces = 12460
    Number of boundary faces = 0

Processor 54
    Number of cells = 94000
    Number of faces shared with processor 22 = 2000
    Number of faces shared with processor 46 = 1880
    Number of faces shared with processor 53 = 2350
    Number of faces shared with processor 55 = 2350
    Number of faces shared with processor 62 = 1880
    Number of faces shared with processor 86 = 2000
    Number of processor patches = 6
    Number of processor faces = 12460
    Number of boundary faces = 0

Processor 55
    Number of cells = 94000
    Number of faces shared with processor 23 = 2000
    Number of faces shared with processor 47 = 1880
    Number of faces shared with processor 54 = 2350
    Number of faces shared with processor 63 = 1880
    Number of faces shared with processor 87 = 2000
    Number of processor patches = 5
    Number of processor faces = 10110
    Number of boundary faces = 2350

Processor 56
    Number of cells = 93472
    Number of faces shared with processor 24 = 2000
    Number of faces shared with processor 48 = 1880
    Number of faces shared with processor 57 = 2317
    Number of faces shared with processor 88 = 2064
    Number of faces shared with processor 89 = 1
    Number of processor patches = 5
    Number of processor faces = 8262
    Number of boundary faces = 4198

Processor 57
    Number of cells = 92137
    Number of faces shared with processor 25 = 2000
    Number of faces shared with processor 49 = 1856
    Number of faces shared with processor 56 = 2317
    Number of faces shared with processor 58 = 2300
    Number of faces shared with processor 89 = 2033
    Number of processor patches = 5
    Number of processor faces = 10506
    Number of boundary faces = 1840

Processor 58
    Number of cells = 92021
    Number of faces shared with processor 26 = 2012
    Number of faces shared with processor 50 = 1840
    Number of faces shared with processor 57 = 2300
    Number of faces shared with processor 59 = 2306
    Number of faces shared with processor 90 = 2000
    Number of processor patches = 5
    Number of processor faces = 10458
    Number of boundary faces = 1846

Processor 59
    Number of cells = 93060
    Number of faces shared with processor 26 = 1
    Number of faces shared with processor 27 = 2079
    Number of faces shared with processor 51 = 1840
    Number of faces shared with processor 58 = 2306
    Number of faces shared with processor 60 = 2346
    Number of faces shared with processor 91 = 2000
    Number of processor patches = 6
    Number of processor faces = 10572
    Number of boundary faces = 1880

Processor 60
    Number of cells = 93994
    Number of faces shared with processor 20 = 1
    Number of faces shared with processor 27 = 1
    Number of faces shared with processor 28 = 2006
    Number of faces shared with processor 52 = 1876
    Number of faces shared with processor 59 = 2346
    Number of faces shared with processor 61 = 2350
    Number of faces shared with processor 92 = 2000
    Number of processor patches = 7
    Number of processor faces = 10580
    Number of boundary faces = 1880

Processor 61
    Number of cells = 94000
    Number of faces shared with processor 29 = 2000
    Number of faces shared with processor 53 = 1880
    Number of faces shared with processor 60 = 2350
    Number of faces shared with processor 62 = 2350
    Number of faces shared with processor 93 = 2000
    Number of processor patches = 5
    Number of processor faces = 10580
    Number of boundary faces = 1880

Processor 62
    Number of cells = 94000
    Number of faces shared with processor 30 = 2000
    Number of faces shared with processor 54 = 1880
    Number of faces shared with processor 61 = 2350
    Number of faces shared with processor 63 = 2350
    Number of faces shared with processor 94 = 2000
    Number of processor patches = 5
    Number of processor faces = 10580
    Number of boundary faces = 1880

Processor 63
    Number of cells = 94000
    Number of faces shared with processor 31 = 2000
    Number of faces shared with processor 55 = 1880
    Number of faces shared with processor 62 = 2350
    Number of faces shared with processor 95 = 2000
    Number of processor patches = 4
    Number of processor faces = 8230
    Number of boundary faces = 4230

Processor 64
    Number of cells = 92000
    Number of faces shared with processor 32 = 2000
    Number of faces shared with processor 65 = 2300
    Number of faces shared with processor 72 = 1840
    Number of processor patches = 3
    Number of processor faces = 6140
    Number of boundary faces = 6140

Processor 65
    Number of cells = 92000
    Number of faces shared with processor 33 = 2000
    Number of faces shared with processor 64 = 2300
    Number of faces shared with processor 66 = 2300
    Number of faces shared with processor 73 = 1840
    Number of processor patches = 4
    Number of processor faces = 8440
    Number of boundary faces = 3840

Processor 66
    Number of cells = 92000
    Number of faces shared with processor 34 = 2000
    Number of faces shared with processor 65 = 2300
    Number of faces shared with processor 67 = 2300
    Number of faces shared with processor 74 = 1840
    Number of processor patches = 4
    Number of processor faces = 8440
    Number of boundary faces = 3840

Processor 67
    Number of cells = 92006
    Number of faces shared with processor 35 = 2006
    Number of faces shared with processor 66 = 2300
    Number of faces shared with processor 68 = 2303
    Number of faces shared with processor 75 = 1843
    Number of processor patches = 4
    Number of processor faces = 8452
    Number of boundary faces = 3840

Processor 68
    Number of cells = 92940
    Number of faces shared with processor 35 = 1
    Number of faces shared with processor 36 = 2079
    Number of faces shared with processor 67 = 2303
    Number of faces shared with processor 69 = 2343
    Number of faces shared with processor 76 = 1880
    Number of processor patches = 5
    Number of processor faces = 8606
    Number of boundary faces = 3840

Processor 69
    Number of cells = 93979
    Number of faces shared with processor 36 = 1
    Number of faces shared with processor 37 = 2012
    Number of faces shared with processor 68 = 2343
    Number of faces shared with processor 70 = 2350
    Number of faces shared with processor 77 = 1880
    Number of processor patches = 5
    Number of processor faces = 8586
    Number of boundary faces = 3874

Processor 70
    Number of cells = 94000
    Number of faces shared with processor 38 = 2000
    Number of faces shared with processor 69 = 2350
    Number of faces shared with processor 71 = 2350
    Number of faces shared with processor 78 = 1880
    Number of processor patches = 4
    Number of processor faces = 8580
    Number of boundary faces = 3880

Processor 71
    Number of cells = 94000
    Number of faces shared with processor 39 = 2000
    Number of faces shared with processor 70 = 2350
    Number of faces shared with processor 79 = 1880
    Number of processor patches = 3
    Number of processor faces = 6230
    Number of boundary faces = 6230

Processor 72
    Number of cells = 92000
    Number of faces shared with processor 40 = 2000
    Number of faces shared with processor 64 = 1840
    Number of faces shared with processor 73 = 2300
    Number of faces shared with processor 80 = 1840
    Number of processor patches = 4
    Number of processor faces = 7980
    Number of boundary faces = 4300

Processor 73
    Number of cells = 92000
    Number of faces shared with processor 41 = 2000
    Number of faces shared with processor 65 = 1840
    Number of faces shared with processor 72 = 2300
    Number of faces shared with processor 74 = 2300
    Number of faces shared with processor 81 = 1840
    Number of processor patches = 5
    Number of processor faces = 10280
    Number of boundary faces = 2000

Processor 74
    Number of cells = 92091
    Number of faces shared with processor 42 = 2026
    Number of faces shared with processor 66 = 1840
    Number of faces shared with processor 73 = 2300
    Number of faces shared with processor 75 = 2313
    Number of faces shared with processor 82 = 1853
    Number of processor patches = 5
    Number of processor faces = 10332
    Number of boundary faces = 2000

Processor 75
    Number of cells = 93334
    Number of faces shared with processor 35 = 1
    Number of faces shared with processor 42 = 1
    Number of faces shared with processor 43 = 2072
    Number of faces shared with processor 67 = 1843
    Number of faces shared with processor 74 = 2313
    Number of faces shared with processor 76 = 2350
    Number of faces shared with processor 83 = 1880
    Number of processor patches = 7
    Number of processor faces = 10460
    Number of boundary faces = 2000

Processor 76
    Number of cells = 94000
    Number of faces shared with processor 44 = 2000
    Number of faces shared with processor 68 = 1880
    Number of faces shared with processor 75 = 2350
    Number of faces shared with processor 77 = 2350
    Number of faces shared with processor 84 = 1880
    Number of processor patches = 5
    Number of processor faces = 10460
    Number of boundary faces = 2000

Processor 77
    Number of cells = 94000
    Number of faces shared with processor 45 = 2000
    Number of faces shared with processor 69 = 1880
    Number of faces shared with processor 76 = 2350
    Number of faces shared with processor 78 = 2350
    Number of faces shared with processor 85 = 1880
    Number of processor patches = 5
    Number of processor faces = 10460
    Number of boundary faces = 2000

Processor 78
    Number of cells = 94000
    Number of faces shared with processor 46 = 2000
    Number of faces shared with processor 70 = 1880
    Number of faces shared with processor 77 = 2350
    Number of faces shared with processor 79 = 2350
    Number of faces shared with processor 86 = 1880
    Number of processor patches = 5
    Number of processor faces = 10460
    Number of boundary faces = 2000

Processor 79
    Number of cells = 94000
    Number of faces shared with processor 47 = 2000
    Number of faces shared with processor 71 = 1880
    Number of faces shared with processor 78 = 2350
    Number of faces shared with processor 87 = 1880
    Number of processor patches = 4
    Number of processor faces = 8110
    Number of boundary faces = 4350

Processor 80
    Number of cells = 92000
    Number of faces shared with processor 48 = 2000
    Number of faces shared with processor 72 = 1840
    Number of faces shared with processor 81 = 2300
    Number of faces shared with processor 88 = 1840
    Number of processor patches = 4
    Number of processor faces = 7980
    Number of boundary faces = 4300

Processor 81
    Number of cells = 92276
    Number of faces shared with processor 49 = 2046
    Number of faces shared with processor 73 = 1840
    Number of faces shared with processor 80 = 2300
    Number of faces shared with processor 82 = 2323
    Number of faces shared with processor 89 = 1863
    Number of processor patches = 5
    Number of processor faces = 10372
    Number of boundary faces = 2000

Processor 82
    Number of cells = 93649
    Number of faces shared with processor 42 = 1
    Number of faces shared with processor 49 = 1
    Number of faces shared with processor 50 = 2052
    Number of faces shared with processor 74 = 1853
    Number of faces shared with processor 81 = 2323
    Number of faces shared with processor 83 = 2350
    Number of faces shared with processor 90 = 1880
    Number of processor patches = 7
    Number of processor faces = 10460
    Number of boundary faces = 2000

Processor 83
    Number of cells = 94000
    Number of faces shared with processor 51 = 2000
    Number of faces shared with processor 75 = 1880
    Number of faces shared with processor 82 = 2350
    Number of faces shared with processor 84 = 2350
    Number of faces shared with processor 91 = 1880
    Number of processor patches = 5
    Number of processor faces = 10460
    Number of boundary faces = 2000

Processor 84
    Number of cells = 94000
    Number of faces shared with processor 52 = 2000
    Number of faces shared with processor 76 = 1880
    Number of faces shared with processor 83 = 2350
    Number of faces shared with processor 85 = 2350
    Number of faces shared with processor 92 = 1880
    Number of processor patches = 5
    Number of processor faces = 10460
    Number of boundary faces = 2000

Processor 85
    Number of cells = 94000
    Number of faces shared with processor 53 = 2000
    Number of faces shared with processor 77 = 1880
    Number of faces shared with processor 84 = 2350
    Number of faces shared with processor 86 = 2350
    Number of faces shared with processor 93 = 1880
    Number of processor patches = 5
    Number of processor faces = 10460
    Number of boundary faces = 2000

Processor 86
    Number of cells = 94000
    Number of faces shared with processor 54 = 2000
    Number of faces shared with processor 78 = 1880
    Number of faces shared with processor 85 = 2350
    Number of faces shared with processor 87 = 2350
    Number of faces shared with processor 94 = 1880
    Number of processor patches = 5
    Number of processor faces = 10460
    Number of boundary faces = 2000

Processor 87
    Number of cells = 94000
    Number of faces shared with processor 55 = 2000
    Number of faces shared with processor 79 = 1880
    Number of faces shared with processor 86 = 2350
    Number of faces shared with processor 95 = 1880
    Number of processor patches = 4
    Number of processor faces = 8110
    Number of boundary faces = 4350

Processor 88
    Number of cells = 92528
    Number of faces shared with processor 56 = 2064
    Number of faces shared with processor 80 = 1840
    Number of faces shared with processor 89 = 2332
    Number of processor patches = 3
    Number of processor faces = 6236
    Number of boundary faces = 6172

Processor 89
    Number of cells = 93863
    Number of faces shared with processor 49 = 1
    Number of faces shared with processor 56 = 1
    Number of faces shared with processor 57 = 2033
    Number of faces shared with processor 81 = 1863
    Number of faces shared with processor 88 = 2332
    Number of faces shared with processor 90 = 2350
    Number of processor patches = 6
    Number of processor faces = 8580
    Number of boundary faces = 3880

Processor 90
    Number of cells = 94000
    Number of faces shared with processor 58 = 2000
    Number of faces shared with processor 82 = 1880
    Number of faces shared with processor 89 = 2350
    Number of faces shared with processor 91 = 2350
    Number of processor patches = 4
    Number of processor faces = 8580
    Number of boundary faces = 3880

Processor 91
    Number of cells = 94000
    Number of faces shared with processor 59 = 2000
    Number of faces shared with processor 83 = 1880
    Number of faces shared with processor 90 = 2350
    Number of faces shared with processor 92 = 2350
    Number of processor patches = 4
    Number of processor faces = 8580
    Number of boundary faces = 3880

Processor 92
    Number of cells = 94000
    Number of faces shared with processor 60 = 2000
    Number of faces shared with processor 84 = 1880
    Number of faces shared with processor 91 = 2350
    Number of faces shared with processor 93 = 2350
    Number of processor patches = 4
    Number of processor faces = 8580
    Number of boundary faces = 3880

Processor 93
    Number of cells = 94000
    Number of faces shared with processor 61 = 2000
    Number of faces shared with processor 85 = 1880
    Number of faces shared with processor 92 = 2350
    Number of faces shared with processor 94 = 2350
    Number of processor patches = 4
    Number of processor faces = 8580
    Number of boundary faces = 3880

Processor 94
    Number of cells = 94000
    Number of faces shared with processor 62 = 2000
    Number of faces shared with processor 86 = 1880
    Number of faces shared with processor 93 = 2350
    Number of faces shared with processor 95 = 2350
    Number of processor patches = 4
    Number of processor faces = 8580
    Number of boundary faces = 3880

Processor 95
    Number of cells = 94000
    Number of faces shared with processor 63 = 2000
    Number of faces shared with processor 87 = 1880
    Number of faces shared with processor 94 = 2350
    Number of processor patches = 3
    Number of processor faces = 6230
    Number of boundary faces = 6230

Number of processor faces = 459179
Max number of cells = 94000 (0.714286% above average 93333.3)
Max number of processor patches = 8 (62.7119% above average 4.91667)
Max number of faces between processors = 12460 (30.2499% above average 9566.23)

Time = 0

Processor 0: field transfer
Processor 1: field transfer
Processor 2: field transfer
Processor 3: field transfer
Processor 4: field transfer
Processor 5: field transfer
Processor 6: field transfer
Processor 7: field transfer
Processor 8: field transfer
Processor 9: field transfer
Processor 10: field transfer
Processor 11: field transfer
Processor 12: field transfer
Processor 13: field transfer
Processor 14: field transfer
Processor 15: field transfer
Processor 16: field transfer
Processor 17: field transfer
Processor 18: field transfer
Processor 19: field transfer
Processor 20: field transfer
Processor 21: field transfer
Processor 22: field transfer
Processor 23: field transfer
Processor 24: field transfer
Processor 25: field transfer
Processor 26: field transfer
Processor 27: field transfer
Processor 28: field transfer
Processor 29: field transfer
Processor 30: field transfer
Processor 31: field transfer
Processor 32: field transfer
Processor 33: field transfer
Processor 34: field transfer
Processor 35: field transfer
Processor 36: field transfer
Processor 37: field transfer
Processor 38: field transfer
Processor 39: field transfer
Processor 40: field transfer
Processor 41: field transfer
Processor 42: field transfer
Processor 43: field transfer
Processor 44: field transfer
Processor 45: field transfer
Processor 46: field transfer
Processor 47: field transfer
Processor 48: field transfer
Processor 49: field transfer
Processor 50: field transfer
Processor 51: field transfer
Processor 52: field transfer
Processor 53: field transfer
Processor 54: field transfer
Processor 55: field transfer
Processor 56: field transfer
Processor 57: field transfer
Processor 58: field transfer
Processor 59: field transfer
Processor 60: field transfer
Processor 61: field transfer
Processor 62: field transfer
Processor 63: field transfer
Processor 64: field transfer
Processor 65: field transfer
Processor 66: field transfer
Processor 67: field transfer
Processor 68: field transfer
Processor 69: field transfer
Processor 70: field transfer
Processor 71: field transfer
Processor 72: field transfer
Processor 73: field transfer
Processor 74: field transfer
Processor 75: field transfer
Processor 76: field transfer
Processor 77: field transfer
Processor 78: field transfer
Processor 79: field transfer
Processor 80: field transfer
Processor 81: field transfer
Processor 82: field transfer
Processor 83: field transfer
Processor 84: field transfer
Processor 85: field transfer
Processor 86: field transfer
Processor 87: field transfer
Processor 88: field transfer
Processor 89: field transfer
Processor 90: field transfer
Processor 91: field transfer
Processor 92: field transfer
Processor 93: field transfer
Processor 94: field transfer
Processor 95: field transfer

End

/*---------------------------------------------------------------------------*\
  =========                 |
  \\      /  F ield         | OpenFOAM: The Open Source CFD Toolbox
   \\    /   O peration     | Website:  https://openfoam.org
    \\  /    A nd           | Version:  8
     \\/     M anipulation  |
\*---------------------------------------------------------------------------*/
Build  : 8
Exec   : simpleDarcyFoam -parallel
Date   : Nov 05 2022
Time   : 15:55:15
Host   : "compute013.int.augusta.nottingham.ac.uk"
PID    : 94584
I/O    : uncollated
Case   : /gpfs01/home/pmxep5/PGSFlowTransport/tutorials/RESULTS/Herten/varPeclet/highPeclet
nProcs : 96
Slaves : 
95
(
"compute013.int.augusta.nottingham.ac.uk.94585"
"compute013.int.augusta.nottingham.ac.uk.94586"
"compute013.int.augusta.nottingham.ac.uk.94587"
"compute013.int.augusta.nottingham.ac.uk.94588"
"compute013.int.augusta.nottingham.ac.uk.94589"
"compute013.int.augusta.nottingham.ac.uk.94590"
"compute013.int.augusta.nottingham.ac.uk.94591"
"compute013.int.augusta.nottingham.ac.uk.94592"
"compute013.int.augusta.nottingham.ac.uk.94593"
"compute013.int.augusta.nottingham.ac.uk.94594"
"compute013.int.augusta.nottingham.ac.uk.94595"
"compute014.int.augusta.nottingham.ac.uk.150602"
"compute014.int.augusta.nottingham.ac.uk.150603"
"compute014.int.augusta.nottingham.ac.uk.150604"
"compute014.int.augusta.nottingham.ac.uk.150605"
"compute014.int.augusta.nottingham.ac.uk.150606"
"compute014.int.augusta.nottingham.ac.uk.150607"
"compute014.int.augusta.nottingham.ac.uk.150608"
"compute014.int.augusta.nottingham.ac.uk.150609"
"compute014.int.augusta.nottingham.ac.uk.150610"
"compute014.int.augusta.nottingham.ac.uk.150611"
"compute014.int.augusta.nottingham.ac.uk.150612"
"compute014.int.augusta.nottingham.ac.uk.150613"
"compute015.int.augusta.nottingham.ac.uk.264005"
"compute015.int.augusta.nottingham.ac.uk.264006"
"compute015.int.augusta.nottingham.ac.uk.264007"
"compute015.int.augusta.nottingham.ac.uk.264008"
"compute015.int.augusta.nottingham.ac.uk.264009"
"compute015.int.augusta.nottingham.ac.uk.264010"
"compute015.int.augusta.nottingham.ac.uk.264011"
"compute015.int.augusta.nottingham.ac.uk.264012"
"compute015.int.augusta.nottingham.ac.uk.264013"
"compute015.int.augusta.nottingham.ac.uk.264014"
"compute015.int.augusta.nottingham.ac.uk.264015"
"compute015.int.augusta.nottingham.ac.uk.264016"
"compute016.int.augusta.nottingham.ac.uk.20169"
"compute016.int.augusta.nottingham.ac.uk.20170"
"compute016.int.augusta.nottingham.ac.uk.20171"
"compute016.int.augusta.nottingham.ac.uk.20172"
"compute016.int.augusta.nottingham.ac.uk.20173"
"compute016.int.augusta.nottingham.ac.uk.20174"
"compute016.int.augusta.nottingham.ac.uk.20175"
"compute016.int.augusta.nottingham.ac.uk.20176"
"compute016.int.augusta.nottingham.ac.uk.20177"
"compute016.int.augusta.nottingham.ac.uk.20178"
"compute016.int.augusta.nottingham.ac.uk.20179"
"compute016.int.augusta.nottingham.ac.uk.20180"
"compute078.int.augusta.nottingham.ac.uk.52572"
"compute078.int.augusta.nottingham.ac.uk.52573"
"compute078.int.augusta.nottingham.ac.uk.52574"
"compute078.int.augusta.nottingham.ac.uk.52575"
"compute078.int.augusta.nottingham.ac.uk.52576"
"compute078.int.augusta.nottingham.ac.uk.52577"
"compute078.int.augusta.nottingham.ac.uk.52578"
"compute078.int.augusta.nottingham.ac.uk.52579"
"compute078.int.augusta.nottingham.ac.uk.52580"
"compute078.int.augusta.nottingham.ac.uk.52581"
"compute078.int.augusta.nottingham.ac.uk.52582"
"compute078.int.augusta.nottingham.ac.uk.52583"
"compute079.int.augusta.nottingham.ac.uk.146983"
"compute079.int.augusta.nottingham.ac.uk.146984"
"compute079.int.augusta.nottingham.ac.uk.146985"
"compute079.int.augusta.nottingham.ac.uk.146986"
"compute079.int.augusta.nottingham.ac.uk.146987"
"compute079.int.augusta.nottingham.ac.uk.146988"
"compute079.int.augusta.nottingham.ac.uk.146989"
"compute079.int.augusta.nottingham.ac.uk.146990"
"compute079.int.augusta.nottingham.ac.uk.146991"
"compute079.int.augusta.nottingham.ac.uk.146992"
"compute079.int.augusta.nottingham.ac.uk.146993"
"compute079.int.augusta.nottingham.ac.uk.146994"
"compute080.int.augusta.nottingham.ac.uk.101934"
"compute080.int.augusta.nottingham.ac.uk.101936"
"compute080.int.augusta.nottingham.ac.uk.101937"
"compute080.int.augusta.nottingham.ac.uk.101939"
"compute080.int.augusta.nottingham.ac.uk.101940"
"compute080.int.augusta.nottingham.ac.uk.101941"
"compute080.int.augusta.nottingham.ac.uk.101942"
"compute080.int.augusta.nottingham.ac.uk.101943"
"compute080.int.augusta.nottingham.ac.uk.101944"
"compute080.int.augusta.nottingham.ac.uk.101945"
"compute080.int.augusta.nottingham.ac.uk.101946"
"compute080.int.augusta.nottingham.ac.uk.101947"
"compute081.int.augusta.nottingham.ac.uk.205831"
"compute081.int.augusta.nottingham.ac.uk.205832"
"compute081.int.augusta.nottingham.ac.uk.205833"
"compute081.int.augusta.nottingham.ac.uk.205834"
"compute081.int.augusta.nottingham.ac.uk.205835"
"compute081.int.augusta.nottingham.ac.uk.205836"
"compute081.int.augusta.nottingham.ac.uk.205837"
"compute081.int.augusta.nottingham.ac.uk.205838"
"compute081.int.augusta.nottingham.ac.uk.205839"
"compute081.int.augusta.nottingham.ac.uk.205840"
"compute081.int.augusta.nottingham.ac.uk.205841"
"compute081.int.augusta.nottingham.ac.uk.205842"
)

Pstream initialized with:
    floatTransfer      : 0
    nProcsSimpleSum    : 0
    commsType          : nonBlocking
    polling iterations : 0
sigFpe : Enabling floating point exception trapping (FOAM_SIGFPE).
fileModificationChecking : Monitoring run-time modified files using timeStampMaster (fileModificationSkew 10)
allowSystemOperations : Allowing user-supplied system call operations

// * * * * * * * * * * * * * * * * * * * * * * * * * * * * * * * * * * * * * //
Create time

Create mesh for time = 0


SIMPLE: Convergence criteria found
        p: tolerance 1e-10
        c: tolerance 1e-10


Reading g

Reading field p

Reading transportProperties

Reading field K

Reading/calculating face flux field phi

No finite volume options present

Starting time loop

Time = 100

DICPBiCGStab:  Solving for p, Initial residual = 1, Final residual = 9.6644e-07, No Iterations 501
Mean velocity  = (0.000273321 1.48838e-07 1.13263e-06)

ExecutionTime = 5.71 s  ClockTime = 6 s

Time = 200

DICPBiCGStab:  Solving for p, Initial residual = 5.12367e-07, Final residual = 4.40975e-13, No Iterations 403
Mean velocity  = (0.000273324 1.5024e-07 1.13147e-06)

ExecutionTime = 9.16 s  ClockTime = 9 s

Time = 300

DICPBiCGStab:  Solving for p, Initial residual = 5.0836e-13, Final residual = 4.52373e-16, No Iterations 247
Mean velocity  = (0.000273324 1.5024e-07 1.13147e-06)

ExecutionTime = 11.39 s  ClockTime = 11 s


SIMPLE solution converged in 300 iterations

End

Finalising parallel run
/*---------------------------------------------------------------------------*\
  =========                 |
  \\      /  F ield         | OpenFOAM: The Open Source CFD Toolbox
   \\    /   O peration     | Website:  https://openfoam.org
    \\  /    A nd           | Version:  8
     \\/     M anipulation  |
\*---------------------------------------------------------------------------*/
Build  : 8
Exec   : macroScalarTransport -parallel
Date   : Nov 05 2022
Time   : 15:57:26
Host   : "compute013.int.augusta.nottingham.ac.uk"
PID    : 95559
I/O    : uncollated
Case   : /gpfs01/home/pmxep5/PGSFlowTransport/tutorials/RESULTS/Herten/varPeclet/highPeclet
nProcs : 96
Slaves : 
95
(
"compute013.int.augusta.nottingham.ac.uk.95560"
"compute013.int.augusta.nottingham.ac.uk.95561"
"compute013.int.augusta.nottingham.ac.uk.95562"
"compute013.int.augusta.nottingham.ac.uk.95563"
"compute013.int.augusta.nottingham.ac.uk.95564"
"compute013.int.augusta.nottingham.ac.uk.95565"
"compute013.int.augusta.nottingham.ac.uk.95566"
"compute013.int.augusta.nottingham.ac.uk.95567"
"compute013.int.augusta.nottingham.ac.uk.95568"
"compute013.int.augusta.nottingham.ac.uk.95569"
"compute013.int.augusta.nottingham.ac.uk.95570"
"compute014.int.augusta.nottingham.ac.uk.150816"
"compute014.int.augusta.nottingham.ac.uk.150817"
"compute014.int.augusta.nottingham.ac.uk.150818"
"compute014.int.augusta.nottingham.ac.uk.150819"
"compute014.int.augusta.nottingham.ac.uk.150820"
"compute014.int.augusta.nottingham.ac.uk.150821"
"compute014.int.augusta.nottingham.ac.uk.150822"
"compute014.int.augusta.nottingham.ac.uk.150823"
"compute014.int.augusta.nottingham.ac.uk.150824"
"compute014.int.augusta.nottingham.ac.uk.150825"
"compute014.int.augusta.nottingham.ac.uk.150826"
"compute014.int.augusta.nottingham.ac.uk.150827"
"compute015.int.augusta.nottingham.ac.uk.264202"
"compute015.int.augusta.nottingham.ac.uk.264203"
"compute015.int.augusta.nottingham.ac.uk.264204"
"compute015.int.augusta.nottingham.ac.uk.264205"
"compute015.int.augusta.nottingham.ac.uk.264206"
"compute015.int.augusta.nottingham.ac.uk.264207"
"compute015.int.augusta.nottingham.ac.uk.264208"
"compute015.int.augusta.nottingham.ac.uk.264209"
"compute015.int.augusta.nottingham.ac.uk.264210"
"compute015.int.augusta.nottingham.ac.uk.264211"
"compute015.int.augusta.nottingham.ac.uk.264212"
"compute015.int.augusta.nottingham.ac.uk.264213"
"compute016.int.augusta.nottingham.ac.uk.20368"
"compute016.int.augusta.nottingham.ac.uk.20369"
"compute016.int.augusta.nottingham.ac.uk.20370"
"compute016.int.augusta.nottingham.ac.uk.20371"
"compute016.int.augusta.nottingham.ac.uk.20372"
"compute016.int.augusta.nottingham.ac.uk.20373"
"compute016.int.augusta.nottingham.ac.uk.20374"
"compute016.int.augusta.nottingham.ac.uk.20375"
"compute016.int.augusta.nottingham.ac.uk.20376"
"compute016.int.augusta.nottingham.ac.uk.20377"
"compute016.int.augusta.nottingham.ac.uk.20378"
"compute016.int.augusta.nottingham.ac.uk.20379"
"compute078.int.augusta.nottingham.ac.uk.52758"
"compute078.int.augusta.nottingham.ac.uk.52759"
"compute078.int.augusta.nottingham.ac.uk.52760"
"compute078.int.augusta.nottingham.ac.uk.52761"
"compute078.int.augusta.nottingham.ac.uk.52762"
"compute078.int.augusta.nottingham.ac.uk.52763"
"compute078.int.augusta.nottingham.ac.uk.52764"
"compute078.int.augusta.nottingham.ac.uk.52765"
"compute078.int.augusta.nottingham.ac.uk.52766"
"compute078.int.augusta.nottingham.ac.uk.52767"
"compute078.int.augusta.nottingham.ac.uk.52768"
"compute078.int.augusta.nottingham.ac.uk.52769"
"compute079.int.augusta.nottingham.ac.uk.147206"
"compute079.int.augusta.nottingham.ac.uk.147207"
"compute079.int.augusta.nottingham.ac.uk.147208"
"compute079.int.augusta.nottingham.ac.uk.147209"
"compute079.int.augusta.nottingham.ac.uk.147210"
"compute079.int.augusta.nottingham.ac.uk.147211"
"compute079.int.augusta.nottingham.ac.uk.147212"
"compute079.int.augusta.nottingham.ac.uk.147213"
"compute079.int.augusta.nottingham.ac.uk.147214"
"compute079.int.augusta.nottingham.ac.uk.147215"
"compute079.int.augusta.nottingham.ac.uk.147216"
"compute079.int.augusta.nottingham.ac.uk.147217"
"compute080.int.augusta.nottingham.ac.uk.102149"
"compute080.int.augusta.nottingham.ac.uk.102150"
"compute080.int.augusta.nottingham.ac.uk.102151"
"compute080.int.augusta.nottingham.ac.uk.102152"
"compute080.int.augusta.nottingham.ac.uk.102153"
"compute080.int.augusta.nottingham.ac.uk.102154"
"compute080.int.augusta.nottingham.ac.uk.102155"
"compute080.int.augusta.nottingham.ac.uk.102156"
"compute080.int.augusta.nottingham.ac.uk.102157"
"compute080.int.augusta.nottingham.ac.uk.102158"
"compute080.int.augusta.nottingham.ac.uk.102159"
"compute080.int.augusta.nottingham.ac.uk.102160"
"compute081.int.augusta.nottingham.ac.uk.206031"
"compute081.int.augusta.nottingham.ac.uk.206032"
"compute081.int.augusta.nottingham.ac.uk.206033"
"compute081.int.augusta.nottingham.ac.uk.206034"
"compute081.int.augusta.nottingham.ac.uk.206035"
"compute081.int.augusta.nottingham.ac.uk.206036"
"compute081.int.augusta.nottingham.ac.uk.206037"
"compute081.int.augusta.nottingham.ac.uk.206038"
"compute081.int.augusta.nottingham.ac.uk.206039"
"compute081.int.augusta.nottingham.ac.uk.206040"
"compute081.int.augusta.nottingham.ac.uk.206041"
"compute081.int.augusta.nottingham.ac.uk.206042"
)

Pstream initialized with:
    floatTransfer      : 0
    nProcsSimpleSum    : 0
    commsType          : nonBlocking
    polling iterations : 0
sigFpe : Enabling floating point exception trapping (FOAM_SIGFPE).
fileModificationChecking : Monitoring run-time modified files using timeStampMaster (fileModificationSkew 10)
allowSystemOperations : Allowing user-supplied system call operations

// * * * * * * * * * * * * * * * * * * * * * * * * * * * * * * * * * * * * * //
Create time

Create mesh for time = 0


SIMPLE: Convergence criteria found
        p: tolerance 1e-10
        c: tolerance 1e-10

Reading field c

Reading field U

Reading transportProperties

Reading diffusivity Dm

Reading outlet name

Reading porosity phi

Reading mechanical disp coeff alpha

Reading controlDict

Reading/calculating face flux field q

No finite volume options present

Calculating scalar transport

Courant Number mean: 0.583838 max: 8.06066
Mean vel = (0.000273324 1.5024e-07 1.13147e-06)

Adaptive time = 9.92457
DILUPBiCGStab:  Solving for c, Initial residual = 1, Final residual = 2.89234e-11, No Iterations 3
Total mass = 0.638765
Flux out = 0

Adaptive time = 19.8491
DILUPBiCGStab:  Solving for c, Initial residual = 0.201612, Final residual = 2.65981e-11, No Iterations 2
Total mass = 1.27657
Flux out = 1.67562e-193

Adaptive time = 29.7737
DILUPBiCGStab:  Solving for c, Initial residual = 0.112072, Final residual = 1.52199e-11, No Iterations 2
Total mass = 1.91332
Flux out = 2.61007e-191

Adaptive time = 39.6983
DILUPBiCGStab:  Solving for c, Initial residual = 0.0776312, Final residual = 1.09983e-11, No Iterations 2
Total mass = 2.54918
Flux out = 1.80787e-189

Adaptive time = 49.6229
DILUPBiCGStab:  Solving for c, Initial residual = 0.0594078, Final residual = 8.81927e-12, No Iterations 2
Total mass = 3.18437
Flux out = 8.11812e-188

Adaptive time = 59.5474
DILUPBiCGStab:  Solving for c, Initial residual = 0.0481342, Final residual = 7.56619e-12, No Iterations 2
Total mass = 3.81905
Flux out = 2.71663e-186

Adaptive time = 69.472
DILUPBiCGStab:  Solving for c, Initial residual = 0.0404723, Final residual = 6.66035e-12, No Iterations 2
Total mass = 4.45336
Flux out = 7.27674e-185

Adaptive time = 79.3966
DILUPBiCGStab:  Solving for c, Initial residual = 0.0349273, Final residual = 5.87226e-12, No Iterations 2
Total mass = 5.08738
Flux out = 1.62933e-183

Adaptive time = 89.3212
DILUPBiCGStab:  Solving for c, Initial residual = 0.0307262, Final residual = 5.08449e-12, No Iterations 2
Total mass = 5.7212
Flux out = 3.14003e-182

Adaptive time = 99.2457
DILUPBiCGStab:  Solving for c, Initial residual = 0.0274344, Final residual = 4.23265e-12, No Iterations 2
Total mass = 6.35487
Flux out = 5.31944e-181

Adaptive time = 109.17
DILUPBiCGStab:  Solving for c, Initial residual = 0.0247843, Final residual = 3.383e-12, No Iterations 2
Total mass = 6.98841
Flux out = 8.04913e-180

Adaptive time = 119.095
DILUPBiCGStab:  Solving for c, Initial residual = 0.0226054, Final residual = 2.64856e-12, No Iterations 2
Total mass = 7.62186
Flux out = 1.10163e-178

Adaptive time = 129.019
DILUPBiCGStab:  Solving for c, Initial residual = 0.0207815, Final residual = 2.07919e-12, No Iterations 2
Total mass = 8.25523
Flux out = 1.37763e-177

Adaptive time = 138.944
DILUPBiCGStab:  Solving for c, Initial residual = 0.0192327, Final residual = 1.74092e-12, No Iterations 2
Total mass = 8.88855
Flux out = 1.58735e-176

Adaptive time = 148.869
DILUPBiCGStab:  Solving for c, Initial residual = 0.0179009, Final residual = 1.6961e-12, No Iterations 2
Total mass = 9.52182
Flux out = 1.69711e-175

Adaptive time = 158.793
DILUPBiCGStab:  Solving for c, Initial residual = 0.0167437, Final residual = 1.67724e-12, No Iterations 2
Total mass = 10.155
Flux out = 1.69374e-174

Adaptive time = 168.718
DILUPBiCGStab:  Solving for c, Initial residual = 0.0157286, Final residual = 1.63535e-12, No Iterations 2
Total mass = 10.7882
Flux out = 1.58611e-173

Adaptive time = 178.642
DILUPBiCGStab:  Solving for c, Initial residual = 0.0148308, Final residual = 1.57065e-12, No Iterations 2
Total mass = 11.4214
Flux out = 1.40002e-172

Adaptive time = 188.567
DILUPBiCGStab:  Solving for c, Initial residual = 0.0140314, Final residual = 1.49078e-12, No Iterations 2
Total mass = 12.0546
Flux out = 1.16943e-171

Adaptive time = 198.491
DILUPBiCGStab:  Solving for c, Initial residual = 0.0133148, Final residual = 1.39977e-12, No Iterations 2
Total mass = 12.6877
Flux out = 9.27669e-171

Adaptive time = 208.416
DILUPBiCGStab:  Solving for c, Initial residual = 0.0126688, Final residual = 1.30351e-12, No Iterations 2
Total mass = 13.3208
Flux out = 7.01088e-170

Adaptive time = 218.341
DILUPBiCGStab:  Solving for c, Initial residual = 0.0120835, Final residual = 1.20681e-12, No Iterations 2
Total mass = 13.9539
Flux out = 5.06242e-169

Adaptive time = 228.265
DILUPBiCGStab:  Solving for c, Initial residual = 0.0115508, Final residual = 1.11382e-12, No Iterations 2
Total mass = 14.587
Flux out = 3.50172e-168

Adaptive time = 238.19
DILUPBiCGStab:  Solving for c, Initial residual = 0.0110638, Final residual = 1.02754e-12, No Iterations 2
Total mass = 15.22
Flux out = 2.32585e-167

Adaptive time = 248.114
DILUPBiCGStab:  Solving for c, Initial residual = 0.0106168, Final residual = 9.51381e-13, No Iterations 2
Total mass = 15.8531
Flux out = 1.48666e-166

Adaptive time = 258.039
DILUPBiCGStab:  Solving for c, Initial residual = 0.010205, Final residual = 8.86763e-13, No Iterations 2
Total mass = 16.4862
Flux out = 9.16352e-166

Adaptive time = 267.963
DILUPBiCGStab:  Solving for c, Initial residual = 0.00982469, Final residual = 8.38594e-13, No Iterations 2
Total mass = 17.1192
Flux out = 5.45705e-165

Adaptive time = 277.888
DILUPBiCGStab:  Solving for c, Initial residual = 0.00947216, Final residual = 8.20963e-13, No Iterations 2
Total mass = 17.7522
Flux out = 3.1454e-164

Adaptive time = 287.813
DILUPBiCGStab:  Solving for c, Initial residual = 0.00914452, Final residual = 8.59081e-13, No Iterations 2
Total mass = 18.3853
Flux out = 1.75773e-163

Adaptive time = 297.737
DILUPBiCGStab:  Solving for c, Initial residual = 0.00883924, Final residual = 9.23151e-13, No Iterations 2
Total mass = 19.0183
Flux out = 9.53861e-163

Adaptive time = 307.662
DILUPBiCGStab:  Solving for c, Initial residual = 0.00855402, Final residual = 1.00629e-12, No Iterations 2
Total mass = 19.6513
Flux out = 5.03438e-162

Adaptive time = 317.586
DILUPBiCGStab:  Solving for c, Initial residual = 0.0082871, Final residual = 1.10642e-12, No Iterations 2
Total mass = 20.2843
Flux out = 2.58811e-161

Adaptive time = 327.511
DILUPBiCGStab:  Solving for c, Initial residual = 0.00803671, Final residual = 1.21847e-12, No Iterations 2
Total mass = 20.9174
Flux out = 1.29784e-160

Adaptive time = 337.435
DILUPBiCGStab:  Solving for c, Initial residual = 0.0078013, Final residual = 1.3359e-12, No Iterations 2
Total mass = 21.5504
Flux out = 6.35736e-160

Adaptive time = 347.36
DILUPBiCGStab:  Solving for c, Initial residual = 0.00757964, Final residual = 1.45419e-12, No Iterations 2
Total mass = 22.1834
Flux out = 3.04617e-159

Adaptive time = 357.285
DILUPBiCGStab:  Solving for c, Initial residual = 0.00737051, Final residual = 1.57093e-12, No Iterations 2
Total mass = 22.8164
Flux out = 1.42971e-158

Adaptive time = 367.209
DILUPBiCGStab:  Solving for c, Initial residual = 0.00717283, Final residual = 1.68097e-12, No Iterations 2
Total mass = 23.4494
Flux out = 6.58192e-158

Adaptive time = 377.134
DILUPBiCGStab:  Solving for c, Initial residual = 0.00698582, Final residual = 1.78301e-12, No Iterations 2
Total mass = 24.0824
Flux out = 2.97614e-157

Adaptive time = 387.058
DILUPBiCGStab:  Solving for c, Initial residual = 0.00680855, Final residual = 1.87583e-12, No Iterations 2
Total mass = 24.7154
Flux out = 1.32354e-156

Adaptive time = 396.983
DILUPBiCGStab:  Solving for c, Initial residual = 0.00664026, Final residual = 1.95965e-12, No Iterations 2
Total mass = 25.3484
Flux out = 5.79669e-156

Adaptive time = 406.908
DILUPBiCGStab:  Solving for c, Initial residual = 0.00648038, Final residual = 2.03501e-12, No Iterations 2
Total mass = 25.9813
Flux out = 2.50357e-155

Adaptive time = 416.832
DILUPBiCGStab:  Solving for c, Initial residual = 0.0063282, Final residual = 2.10469e-12, No Iterations 2
Total mass = 26.6143
Flux out = 1.06767e-154

Adaptive time = 426.757
DILUPBiCGStab:  Solving for c, Initial residual = 0.00618318, Final residual = 2.17031e-12, No Iterations 2
Total mass = 27.2473
Flux out = 4.50148e-154

Adaptive time = 436.681
DILUPBiCGStab:  Solving for c, Initial residual = 0.00604493, Final residual = 2.23486e-12, No Iterations 2
Total mass = 27.8803
Flux out = 1.87863e-153

Adaptive time = 446.606
DILUPBiCGStab:  Solving for c, Initial residual = 0.0059129, Final residual = 2.30141e-12, No Iterations 2
Total mass = 28.5133
Flux out = 7.76937e-153

Adaptive time = 456.53
DILUPBiCGStab:  Solving for c, Initial residual = 0.00578665, Final residual = 2.37408e-12, No Iterations 2
Total mass = 29.1463
Flux out = 3.18748e-152

Adaptive time = 466.455
DILUPBiCGStab:  Solving for c, Initial residual = 0.0056659, Final residual = 2.4577e-12, No Iterations 2
Total mass = 29.7793
Flux out = 1.29849e-151

Adaptive time = 476.38
DILUPBiCGStab:  Solving for c, Initial residual = 0.00555022, Final residual = 2.55775e-12, No Iterations 2
Total mass = 30.4122
Flux out = 5.25685e-151

Adaptive time = 486.304
DILUPBiCGStab:  Solving for c, Initial residual = 0.0054393, Final residual = 2.67841e-12, No Iterations 2
Total mass = 31.0452
Flux out = 2.11653e-150

Adaptive time = 496.229
DILUPBiCGStab:  Solving for c, Initial residual = 0.00533293, Final residual = 2.82536e-12, No Iterations 2
Total mass = 31.6782
Flux out = 8.48005e-150

Adaptive time = 506.153
DILUPBiCGStab:  Solving for c, Initial residual = 0.00523077, Final residual = 3.00343e-12, No Iterations 2
Total mass = 32.3112
Flux out = 3.38272e-149

Adaptive time = 516.078
DILUPBiCGStab:  Solving for c, Initial residual = 0.00513255, Final residual = 3.21587e-12, No Iterations 2
Total mass = 32.9441
Flux out = 1.344e-148

Adaptive time = 526.002
DILUPBiCGStab:  Solving for c, Initial residual = 0.00503814, Final residual = 3.46204e-12, No Iterations 2
Total mass = 33.5771
Flux out = 5.32026e-148

Adaptive time = 535.927
DILUPBiCGStab:  Solving for c, Initial residual = 0.00494726, Final residual = 3.73475e-12, No Iterations 2
Total mass = 34.2101
Flux out = 2.09881e-147

Adaptive time = 545.852
DILUPBiCGStab:  Solving for c, Initial residual = 0.00485969, Final residual = 4.0178e-12, No Iterations 2
Total mass = 34.8431
Flux out = 8.25283e-147

Adaptive time = 555.776
DILUPBiCGStab:  Solving for c, Initial residual = 0.00477532, Final residual = 4.28528e-12, No Iterations 2
Total mass = 35.476
Flux out = 3.23512e-146

Adaptive time = 565.701
DILUPBiCGStab:  Solving for c, Initial residual = 0.00469394, Final residual = 4.50611e-12, No Iterations 2
Total mass = 36.109
Flux out = 1.26443e-145

Adaptive time = 575.625
DILUPBiCGStab:  Solving for c, Initial residual = 0.00461536, Final residual = 4.65918e-12, No Iterations 2
Total mass = 36.742
Flux out = 4.92797e-145

Adaptive time = 585.55
DILUPBiCGStab:  Solving for c, Initial residual = 0.00453952, Final residual = 4.73528e-12, No Iterations 2
Total mass = 37.3749
Flux out = 1.91543e-144

Adaptive time = 595.474
DILUPBiCGStab:  Solving for c, Initial residual = 0.00446623, Final residual = 4.75342e-12, No Iterations 2
Total mass = 38.0079
Flux out = 7.42577e-144

Adaptive time = 605.399
DILUPBiCGStab:  Solving for c, Initial residual = 0.00439533, Final residual = 4.759e-12, No Iterations 2
Total mass = 38.6409
Flux out = 2.87178e-143

Adaptive time = 615.324
DILUPBiCGStab:  Solving for c, Initial residual = 0.00432678, Final residual = 4.90388e-12, No Iterations 2
Total mass = 39.2738
Flux out = 1.10803e-142

Adaptive time = 625.248
DILUPBiCGStab:  Solving for c, Initial residual = 0.00426044, Final residual = 5.11305e-12, No Iterations 2
Total mass = 39.9068
Flux out = 4.26579e-142

Adaptive time = 635.173
DILUPBiCGStab:  Solving for c, Initial residual = 0.00419617, Final residual = 5.34332e-12, No Iterations 2
Total mass = 40.5398
Flux out = 1.6389e-141

Adaptive time = 645.097
DILUPBiCGStab:  Solving for c, Initial residual = 0.0041339, Final residual = 5.57688e-12, No Iterations 2
Total mass = 41.1727
Flux out = 6.28447e-141

Adaptive time = 655.022
DILUPBiCGStab:  Solving for c, Initial residual = 0.00407356, Final residual = 5.79572e-12, No Iterations 2
Total mass = 41.8057
Flux out = 2.40545e-140

Adaptive time = 664.946
DILUPBiCGStab:  Solving for c, Initial residual = 0.00401501, Final residual = 5.96177e-12, No Iterations 2
Total mass = 42.4387
Flux out = 9.19152e-140

Adaptive time = 674.871
DILUPBiCGStab:  Solving for c, Initial residual = 0.00395822, Final residual = 5.97244e-12, No Iterations 2
Total mass = 43.0716
Flux out = 3.50658e-139

Adaptive time = 684.796
DILUPBiCGStab:  Solving for c, Initial residual = 0.0039031, Final residual = 5.79239e-12, No Iterations 2
Total mass = 43.7046
Flux out = 1.33575e-138

Adaptive time = 694.72
DILUPBiCGStab:  Solving for c, Initial residual = 0.00384956, Final residual = 8.02902e-12, No Iterations 2
Total mass = 44.3376
Flux out = 5.08097e-138

Adaptive time = 704.645
DILUPBiCGStab:  Solving for c, Initial residual = 0.00379753, Final residual = 1.39458e-11, No Iterations 2
Total mass = 44.9705
Flux out = 1.9301e-137

Adaptive time = 714.569
DILUPBiCGStab:  Solving for c, Initial residual = 0.00374697, Final residual = 2.40086e-11, No Iterations 2
Total mass = 45.6035
Flux out = 7.32232e-137

Adaptive time = 724.494
DILUPBiCGStab:  Solving for c, Initial residual = 0.00369781, Final residual = 3.87687e-11, No Iterations 2
Total mass = 46.2365
Flux out = 2.77446e-136

Adaptive time = 734.418
DILUPBiCGStab:  Solving for c, Initial residual = 0.00364998, Final residual = 5.99354e-11, No Iterations 2
Total mass = 46.8694
Flux out = 1.04999e-135

Adaptive time = 744.343
DILUPBiCGStab:  Solving for c, Initial residual = 0.00360347, Final residual = 9.0579e-11, No Iterations 2
Total mass = 47.5024
Flux out = 3.9691e-135

Adaptive time = 754.268
DILUPBiCGStab:  Solving for c, Initial residual = 0.00355817, Final residual = 4.12948e-13, No Iterations 3
Total mass = 48.1353
Flux out = 1.49867e-134

Adaptive time = 764.192
DILUPBiCGStab:  Solving for c, Initial residual = 0.00351405, Final residual = 4.03985e-13, No Iterations 3
Total mass = 48.7683
Flux out = 5.65253e-134

Adaptive time = 774.117
DILUPBiCGStab:  Solving for c, Initial residual = 0.00347108, Final residual = 3.93572e-13, No Iterations 3
Total mass = 49.4013
Flux out = 2.12964e-133

Adaptive time = 784.041
DILUPBiCGStab:  Solving for c, Initial residual = 0.00342922, Final residual = 3.81807e-13, No Iterations 3
Total mass = 50.0342
Flux out = 8.01497e-133

Adaptive time = 793.966
DILUPBiCGStab:  Solving for c, Initial residual = 0.0033884, Final residual = 3.61238e-13, No Iterations 3
Total mass = 50.6672
Flux out = 3.01321e-132

Adaptive time = 803.89
DILUPBiCGStab:  Solving for c, Initial residual = 0.0033486, Final residual = 3.21402e-13, No Iterations 3
Total mass = 51.3001
Flux out = 1.13158e-131

Adaptive time = 813.815
DILUPBiCGStab:  Solving for c, Initial residual = 0.00330979, Final residual = 2.56088e-13, No Iterations 3
Total mass = 51.9331
Flux out = 4.24479e-131

Adaptive time = 823.74
DILUPBiCGStab:  Solving for c, Initial residual = 0.0032719, Final residual = 1.59956e-13, No Iterations 3
Total mass = 52.5661
Flux out = 1.59049e-130

Adaptive time = 833.664
DILUPBiCGStab:  Solving for c, Initial residual = 0.00323493, Final residual = 1.08852e-13, No Iterations 3
Total mass = 53.199
Flux out = 5.95232e-130

Adaptive time = 843.589
DILUPBiCGStab:  Solving for c, Initial residual = 0.00319885, Final residual = 1.93718e-13, No Iterations 3
Total mass = 53.832
Flux out = 2.22482e-129

Adaptive time = 853.513
DILUPBiCGStab:  Solving for c, Initial residual = 0.00316361, Final residual = 2.82719e-13, No Iterations 3
Total mass = 54.4649
Flux out = 8.30463e-129

Adaptive time = 863.438
DILUPBiCGStab:  Solving for c, Initial residual = 0.00312918, Final residual = 3.49589e-13, No Iterations 3
Total mass = 55.0979
Flux out = 3.09545e-128

Adaptive time = 873.362
DILUPBiCGStab:  Solving for c, Initial residual = 0.00309556, Final residual = 3.91487e-13, No Iterations 3
Total mass = 55.7308
Flux out = 1.15201e-127

Adaptive time = 883.287
DILUPBiCGStab:  Solving for c, Initial residual = 0.00306269, Final residual = 4.11884e-13, No Iterations 3
Total mass = 56.3638
Flux out = 4.2802e-127

Adaptive time = 893.212
DILUPBiCGStab:  Solving for c, Initial residual = 0.00303055, Final residual = 4.15962e-13, No Iterations 3
Total mass = 56.9968
Flux out = 1.58741e-126

Adaptive time = 903.136
DILUPBiCGStab:  Solving for c, Initial residual = 0.00299913, Final residual = 4.09756e-13, No Iterations 3
Total mass = 57.6297
Flux out = 5.87575e-126

Adaptive time = 913.061
DILUPBiCGStab:  Solving for c, Initial residual = 0.00296839, Final residual = 3.98093e-13, No Iterations 3
Total mass = 58.2627
Flux out = 2.1703e-125

Adaptive time = 922.985
DILUPBiCGStab:  Solving for c, Initial residual = 0.00293833, Final residual = 3.84063e-13, No Iterations 3
Total mass = 58.8956
Flux out = 7.99802e-125

Adaptive time = 932.91
DILUPBiCGStab:  Solving for c, Initial residual = 0.00290891, Final residual = 3.69759e-13, No Iterations 3
Total mass = 59.5286
Flux out = 2.9402e-124

Adaptive time = 942.834
DILUPBiCGStab:  Solving for c, Initial residual = 0.00288012, Final residual = 3.56481e-13, No Iterations 3
Total mass = 60.1615
Flux out = 1.07802e-123

Adaptive time = 952.759
DILUPBiCGStab:  Solving for c, Initial residual = 0.00285193, Final residual = 3.44848e-13, No Iterations 3
Total mass = 60.7945
Flux out = 3.94136e-123

Adaptive time = 962.684
DILUPBiCGStab:  Solving for c, Initial residual = 0.00282432, Final residual = 3.3514e-13, No Iterations 3
Total mass = 61.4275
Flux out = 1.43668e-122

Adaptive time = 972.608
DILUPBiCGStab:  Solving for c, Initial residual = 0.00279728, Final residual = 3.27447e-13, No Iterations 3
Total mass = 62.0604
Flux out = 5.22021e-122

Adaptive time = 982.533
DILUPBiCGStab:  Solving for c, Initial residual = 0.0027708, Final residual = 3.21688e-13, No Iterations 3
Total mass = 62.6934
Flux out = 1.89039e-121

Adaptive time = 992.457
DILUPBiCGStab:  Solving for c, Initial residual = 0.00274485, Final residual = 3.17799e-13, No Iterations 3
Total mass = 63.3263
Flux out = 6.82136e-121

Adaptive time = 1002.38
DILUPBiCGStab:  Solving for c, Initial residual = 0.00271942, Final residual = 3.15703e-13, No Iterations 3
Total mass = 63.9593
Flux out = 2.45231e-120

Adaptive time = 1012.31
DILUPBiCGStab:  Solving for c, Initial residual = 0.0026945, Final residual = 3.15316e-13, No Iterations 3
Total mass = 64.5922
Flux out = 8.78196e-120

Adaptive time = 1022.23
DILUPBiCGStab:  Solving for c, Initial residual = 0.00267006, Final residual = 3.16532e-13, No Iterations 3
Total mass = 65.2252
Flux out = 3.13221e-119

Adaptive time = 1032.16
DILUPBiCGStab:  Solving for c, Initial residual = 0.00264609, Final residual = 3.19207e-13, No Iterations 3
Total mass = 65.8582
Flux out = 1.11247e-118

Adaptive time = 1042.08
DILUPBiCGStab:  Solving for c, Initial residual = 0.00262259, Final residual = 3.23182e-13, No Iterations 3
Total mass = 66.4911
Flux out = 3.9341e-118

Adaptive time = 1052
DILUPBiCGStab:  Solving for c, Initial residual = 0.00259953, Final residual = 3.28118e-13, No Iterations 3
Total mass = 67.1241
Flux out = 1.38504e-117

Adaptive time = 1061.93
DILUPBiCGStab:  Solving for c, Initial residual = 0.0025769, Final residual = 3.33559e-13, No Iterations 3
Total mass = 67.757
Flux out = 4.85384e-117

Adaptive time = 1071.85
DILUPBiCGStab:  Solving for c, Initial residual = 0.0025547, Final residual = 3.38995e-13, No Iterations 3
Total mass = 68.39
Flux out = 1.69304e-116

Adaptive time = 1081.78
DILUPBiCGStab:  Solving for c, Initial residual = 0.00253292, Final residual = 3.43799e-13, No Iterations 3
Total mass = 69.0229
Flux out = 5.87705e-116

Adaptive time = 1091.7
DILUPBiCGStab:  Solving for c, Initial residual = 0.00251153, Final residual = 3.47337e-13, No Iterations 3
Total mass = 69.6559
Flux out = 2.03013e-115

Adaptive time = 1101.63
DILUPBiCGStab:  Solving for c, Initial residual = 0.00249052, Final residual = 3.49033e-13, No Iterations 3
Total mass = 70.2888
Flux out = 6.97785e-115

Adaptive time = 1111.55
DILUPBiCGStab:  Solving for c, Initial residual = 0.00246991, Final residual = 3.4852e-13, No Iterations 3
Total mass = 70.9218
Flux out = 2.38626e-114

Adaptive time = 1121.48
DILUPBiCGStab:  Solving for c, Initial residual = 0.00244965, Final residual = 3.45697e-13, No Iterations 3
Total mass = 71.5547
Flux out = 8.11865e-114

Adaptive time = 1131.4
DILUPBiCGStab:  Solving for c, Initial residual = 0.00242976, Final residual = 3.40707e-13, No Iterations 3
Total mass = 72.1877
Flux out = 2.74784e-113

Adaptive time = 1141.33
DILUPBiCGStab:  Solving for c, Initial residual = 0.00241022, Final residual = 3.33961e-13, No Iterations 3
Total mass = 72.8207
Flux out = 9.2516e-113

Adaptive time = 1151.25
DILUPBiCGStab:  Solving for c, Initial residual = 0.00239102, Final residual = 3.26081e-13, No Iterations 3
Total mass = 73.4536
Flux out = 3.09841e-112

Adaptive time = 1161.18
DILUPBiCGStab:  Solving for c, Initial residual = 0.00237214, Final residual = 3.17763e-13, No Iterations 3
Total mass = 74.0866
Flux out = 1.03214e-111

Adaptive time = 1171.1
DILUPBiCGStab:  Solving for c, Initial residual = 0.00235359, Final residual = 3.09654e-13, No Iterations 3
Total mass = 74.7195
Flux out = 3.41982e-111

Adaptive time = 1181.02
DILUPBiCGStab:  Solving for c, Initial residual = 0.00233536, Final residual = 3.02308e-13, No Iterations 3
Total mass = 75.3525
Flux out = 1.12698e-110

Adaptive time = 1190.95
DILUPBiCGStab:  Solving for c, Initial residual = 0.00231743, Final residual = 2.96111e-13, No Iterations 3
Total mass = 75.9854
Flux out = 3.69378e-110

Adaptive time = 1200.87
DILUPBiCGStab:  Solving for c, Initial residual = 0.0022998, Final residual = 2.90381e-13, No Iterations 3
Total mass = 76.6184
Flux out = 1.20408e-109

Adaptive time = 1210.8
[...]
[15] 
FOAM parallel run exiting
[15] 
[74] 
[74] 
[74] --> FOAM FATAL ERROR: 
[74] Concentration under the threshold
[52] 
[52] 
[52] --> FOAM FATAL ERROR: 
[52] Concentration under the threshold
[52] 
[52] 
[52]     From function macroScalarTransport
[52]     in file macroScalarTransport.C at line 103.
[52] 
FOAM parallel run exiting
[52] 

[67]     in file macroScalarTransport.C at line 103.
[67] 
FOAM parallel run exiting
[67] 
[93] [29] [42] [1] 
[1] 
[1] --> FOAM FATAL ERROR: 
[1] Concentration under the threshold
[1] 
[1] 
[1]     From function macroScalarTransport
[1]     in file macroScalarTransport.C at line 103.
[1] 
FOAM parallel run exiting
[1] 
[94] 
[29] 

[42] 
[20] 
[20] 
[74] 
[74] 
[74]     From function macroScalarTransport
[74]     in file macroScalarTransport.C at line 103.
[74] 
FOAM parallel run exiting
[74] 
    From function macroScalarTransport
[48]     in file macroScalarTransport.C at line 103.
[48] 
FOAM parallel run exiting
[48] 

[66] 
[66] --> FOAM FATAL ERROR: 
[66] Concentration under the threshold
[66] 
[66] 
[66]     From function macroScalarTransport
[66]     in file macroScalarTransport.C at line 103.
[66] 
FOAM parallel run exiting
[66] 
[0] 
[0] 
[0] --> FOAM FATAL ERROR: 
[0] Concentration under the threshold
[0] 
[0] 
[0]     From function macroScalarTransport
[0]     in file macroScalarTransport.C at line 103.
[0] 
FOAM parallel run exiting
[0] 
103.
[95] 
FOAM parallel run exiting
[95] 
[29] --> FOAM FATAL ERROR: 
[29] Concentration under the threshold
[29] 
[29] 
[29]     From function macroScalarTransport
[29]     in file macroScalarTransport.C at line [42] --> FOAM FATAL ERROR: 
[42] Concentration under the threshold
[42] 
[42] 
[42]     From function macroScalarTransport
[42]     in file [20] --> FOAM FATAL ERROR: 
[20] Concentration under the threshold
[20] 
[20] 
[20]     From function macroScalarTransport
[20]     in file macroScalarTransport.C at line 103.
[20] 
FOAM parallel run exiting
[20] 
[75] 
[58] 
[58] --> FOAM FATAL ERROR: 
[58] Concentration under the threshold
[58] 
[58] 
[58]     From function macroScalarTransport
[58]     in file macroScalarTransport.C at line 103.
[58] 
FOAM parallel run exiting
[58] 
[68] [9] 
[9] 
[9] --> FOAM FATAL ERROR: 
[9] Concentration under the threshold
[9] 
[9] 
[9]     From function macroScalarTransport
[9]     in file macroScalarTransport.C at line 103.
[9] 
FOAM parallel run exiting
[9] 
[10] 
[10] 
[10] --> FOAM FATAL ERROR: 
[10] Concentration under the threshold
[10] 
[10] 
[10]     From function macroScalarTransport[18] 
[18] 
[18] --> FOAM FATAL ERROR: 
[18] Concentration under the threshold
[18] 
[18] 
[18]     From function 
[75] 
[75] --> FOAM FATAL ERROR: 
[75] Concentration under the threshold
[75] 
[75] 
[75]     From function macroScalarTransport
[75]     in file macroScalarTransport.C at line [50] 
[50] 

[68] 
[94] 
[94] --> FOAM FATAL ERROR: 
[94] Concentration under the threshold
[94] 
[94] 
[94]     From function macroScalarTransport
[94]     in file macroScalarTransport.C at line 103.
[94] 103.
[29] 
FOAM parallel run exiting
[29] 
macroScalarTransport.C at line 103.
[42] 
FOAM parallel run exiting
[42] 

[10]     in file macroScalarTransport.C at line 103.
[10] 
FOAM parallel run exiting
[10] 

[93] 
[93] --> FOAM FATAL ERROR: 
[93] Concentration under the threshold
[93] 
[93] 
[93]     From function macroScalarTransport
[93]     in file macroScalarTransport.C at line 103[32] [36] 
[36] 
[36] --> FOAM FATAL ERROR: macroScalarTransport
[18]     in file macroScalarTransport.C at line 103.
[18] 
FOAM parallel run exiting
[18] 
103.
[75] 
FOAM parallel run exiting
[75] 
[49] 
[68] --> FOAM FATAL ERROR: 
[68] Concentration under the threshold
[68] 
[68] 
[68]     From function macroScalarTransport
[68]     in file macroScalarTransport.C at line 103.
[68] 
FOAM parallel run exiting
[94] 

[32] 
[36] Concentration under the threshold
[36] 
[36] 
[36]     From function macroScalarTransport
[36]     in file macroScalarTransport.C at line 103.
[36] 
FOAM parallel run exiting
[36] 
[21] 
[21] 
[21] --> FOAM FATAL ERROR: 
[21] Concentration under the threshold
[21] 
[21] 
[21]     From function macroScalarTransport
[21]     in file macroScalarTransport.C at line [73] [50] --> FOAM FATAL ERROR: 
[50] Concentration under the threshold
[50] 
[50] 
[50]     From function macroScalarTransport
[50]     in file macroScalarTransport.C at line 103.
[50] 
FOAM parallel run exiting
[50] 

FOAM parallel run exiting
[68] 
[3] 
[3] 
[3] --> FOAM FATAL ERROR: 
[3] Concentration under the threshold
[3] 
[3] 
[3]     From function macroScalarTransport
[3]     in file macroScalarTransport.C at line 103.
[3] 
FOAM parallel run exiting
[3] 
.
[93] 
FOAM parallel run exiting
[93] 

[32] --> FOAM FATAL ERROR: 
[32] Concentration under the threshold
[32] 
[32] 
[32]     From function macroScalarTransport
[32]     in file [45] 103.
[21] 
FOAM parallel run exiting
[21] 

[73] 
[73] --> FOAM FATAL ERROR: 
[73] Concentration under the threshold
[73] 
[73] 
[73]     From function macroScalarTransport
[73]     in file macroScalarTransport.C
[49] 
[49] --> FOAM FATAL ERROR: 
[49] Concentration under the threshold
[49] 
[49] 
[49]     From function macroScalarTransport
[49]     in file macroScalarTransport.C at line 103.
[49] 
FOAM parallel run exiting
[49] 
[71] [2] 
[2] 
[2] --> FOAM FATAL ERROR: 
[2] Concentration under the threshold
[2] 
[2] 
[2]     From function macroScalarTransport
[2]     in file macroScalarTransport.C at line 103.
[2] 
FOAM parallel run exiting
[2] 
[87] [33] 
[45] 
[13] 
[13]  at line 103.
[73] 
FOAM parallel run exiting
[73] 
[51] 
[71] 
[87] 
[87] macroScalarTransport.C at line 103.
[32] 
FOAM parallel run exiting
[32] 
[45] --> FOAM FATAL ERROR: 
[45] Concentration under the threshold
[45] 
[45] 
[45]     From function macroScalarTransport
[45]     in file macroScalarTransport.C
[13] --> FOAM FATAL ERROR: 
[13] Concentration under the threshold
[13] 
[13] 
[13]     From function macroScalarTransport
[13]     in file macroScalarTransport.C at line 103.
[13] 
FOAM parallel run exiting
[13] 
[82] 
[51] 

[71] --> FOAM FATAL ERROR: 
[71] Concentration under the threshold
[71] 
[71] 
[71]     From function macroScalarTransport

[33] 
[33] --> FOAM FATAL ERROR: 
[33] Concentration under the threshold
[33] 
[33] 
[33]     From function macroScalarTransport
[33]     in file macroScalarTransport.C at line  at line 103.
[45] 
FOAM parallel run exiting
[45] 
[12] 
[82] 
[82] --> FOAM FATAL ERROR: 
[82] Concentration under the threshold
[82] 
[82] 
[82]     From function macroScalarTransport
[82]     in file macroScalarTransport.C[51] --> FOAM FATAL ERROR: 
[51] Concentration under the threshold
[51] 
[51] 
[51]     From function macroScalarTransport
[51]     in file macroScalarTransport.C[71]     in file macroScalarTransport.C at line 103.
[71] 
FOAM parallel run exiting
[71] 
--> FOAM FATAL ERROR: 
[87] Concentration under the threshold
[87] 
[87] 
[87]     From function macroScalarTransport
[87]     in file macroScalarTransport.C at line 103.
[87] 
FOAM parallel run exiting
[87] 
103.
[33] 
FOAM parallel run exiting
[33] 
[37] 
[12] 
[12] --> FOAM FATAL ERROR: 
[12] Concentration under the threshold
[12] 
[12] 
[12]     From function macroScalarTransport
[12]     in file macroScalarTransport.C at line 103.
[12] 
FOAM parallel run exiting
[12]  at line 103.
[82] 
FOAM parallel run exiting
[82] 
 at line 103.
[51] 
FOAM parallel run exiting
[51] 
[70] [5] [6] 
[6] 
[6] --> FOAM FATAL ERROR: 
[6] Concentration under the threshold
[6] 
[6] 
[6]     From function macroScalarTransport
[6]     in file macroScalarTransport.C at line 103.
[6] 
FOAM parallel run exiting
[6] 
[91] [26] 
[37] 
[78] 
[78] 
[78] --> FOAM FATAL ERROR: 
[78] Concentration under the threshold
[78] 
[78] 
[78]     From function macroScalarTransport
[78]     in file macroScalarTransport.C at line 103.
[78] 
FOAM parallel run exiting
[78] 
[59] 
[70] [4] 
[4] 
[4] --> FOAM FATAL ERROR: 
[4] Concentration under the threshold
[4] 
[4] 
[4]     From function macroScalarTransport
[4]     in file macroScalarTransport.C at line 103.
[4] 
FOAM parallel run exiting
[4] 

[5] 
[5] --> FOAM FATAL ERROR: 
[5] Concentration under the threshold
[5] 
[5] 
[5]     From function macroScalarTransport
[5]     in file macroScalarTransport.C at line 103.
[5] 
FOAM parallel run exiting
[5] 

[91] 
[26] 
[37] --> FOAM FATAL ERROR: 
[37] Concentration under the threshold
[37] 
[37] 
[37]     From function macroScalarTransport
[37] [79] 

[59] 

[70] --> FOAM FATAL ERROR: 
[70] Concentration under the threshold
[70] 
[70] 
[70]     From function macroScalarTransport
[70] 
[91] --> FOAM FATAL ERROR: 
[91] Concentration under the threshold
[91] 
[91] 
[91]     From function macroScalarTransport
[91]     in file 
[26] --> FOAM FATAL ERROR: 
[26] Concentration under the threshold
[26] 
[26] 
[26]     From function macroScalarTransport
[26]     in file macroScalarTransport.C at line 103.
[37] 
FOAM parallel run exiting
[37] 
[79] 
[79] --> FOAM FATAL ERROR: 
[79] Concentration under the threshold
[79] 
[79] 
[79]     From function macroScalarTransport
[79]     in file macroScalarTransport.C at line 103.
[79] 
FOAM parallel run exiting
[79] 
[59] --> FOAM FATAL ERROR: 
[59] Concentration under the threshold
[59] 
[59] 
[59]     From function macroScalarTransport
[59]     in file macroScalarTransport.C[69] macroScalarTransport.C at line 103.
[91] 
FOAM parallel run exiting
[91] 
    in file macroScalarTransport.C at line 103.
[26] 
FOAM parallel run exiting
[26] 
[44] [76] 
[76]  at line 103.
[59] 
FOAM parallel run exiting
[59] 
    in file macroScalarTransport.C at line 103.
[70] 
FOAM parallel run exiting
[70] 
[84] [30] 
[44] 
[76] --> FOAM FATAL ERROR: 
[76] Concentration under the threshold
[76] 
[76] 
[76]     From function macroScalarTransport
[76]     in file macroScalarTransport.C at line 103.
[76] 
FOAM parallel run exiting
[76] 
[53] 
[69] 
[69] --> FOAM FATAL ERROR: 
[69] Concentration under the threshold
[69] 
[69] 
[69]     From function macroScalarTransport
[69]     in file macroScalarTransport.C at line 103.
[69] 
FOAM parallel run exiting
[69] 

[84] 
[30] 
[30] --> FOAM FATAL ERROR: 
[30] Concentration under the threshold
[30] 
[30] 
[44] --> FOAM FATAL ERROR: 
[44] Concentration under the threshold
[44] 
[44] 
[44]     From function macroScalarTransport
[77] 
[77] 
[77] --> FOAM FATAL ERROR: 
[77] Concentration under the threshold
[77] 
[77] 
[77]     From function macroScalarTransport
[77]     in file macroScalarTransport.C at line 103.
[77] 
FOAM parallel run exiting
[77] 

[53] [89] 
[30]     From function macroScalarTransport
[30]     in file macroScalarTransport.C at line 103[44]     in file macroScalarTransport.C at line 103.
[44] 
FOAM parallel run exiting
[44] 

[53] --> FOAM FATAL ERROR: 
[53] Concentration under the threshold
[53] 
[53] 
[53]     From function macroScalarTransport
[60] 
[84] --> FOAM FATAL ERROR: 
[84] Concentration under the threshold
[84] 
[84] 
[84]     From function macroScalarTransport
[84]     in file macroScalarTransport.C at line 103.
[84] .
[30] 
FOAM parallel run exiting
[30] 
[46] [53]     in file macroScalarTransport.C at line 103.
[53] 
FOAM parallel run exiting
[53] 

[60] 
[89] 
[89] --> FOAM FATAL ERROR: 
[89] Concentration under the threshold
[89] 
[89] 
[89]     From function macroScalarTransport
[25] 
[46] [54] 
[60] --> FOAM FATAL ERROR: 
[60] Concentration under the threshold
[60] 
[60] 
[60]     From function macroScalarTransport
[60]     in file 
FOAM parallel run exiting
[84] 

[25] 
[46] --> FOAM FATAL ERROR: 
[46] Concentration under the threshold
[46] 
[46] 
[46]     From function macroScalarTransport
[46] 
[54] macroScalarTransport.C at line 103.
[60] 
FOAM parallel run exiting
[60] 
[89]     in file macroScalarTransport.C at line 103.
[89] 
FOAM parallel run exiting
[89] 

[25] --> FOAM FATAL ERROR: 
[25] Concentration under the threshold
[25] 
[25] 
[25]     From function macroScalarTransport
[25]     in file macroScalarTransport.C at line 103.
[46] 
FOAM parallel run exiting
[46] 

[54] --> FOAM FATAL ERROR: 
[54] Concentration under the threshold
[54] 
[54] 
[54]     From function macroScalarTransport
[54] [61] [86]     in file macroScalarTransport.C at line 103.
[25] 
FOAM parallel run exiting
[25] 
[39]     in file macroScalarTransport.C at line 103.
[54] 
FOAM parallel run exiting
[54] 

[61] 
[61] --> FOAM FATAL ERROR: 
[86] [27] 
[39] 
[39] --> FOAM FATAL ERROR: 
[39] [55] 
[61] Concentration under the threshold
[61] 
[61] 
[61]     From function macroScalarTransport
[61]     in file macroScalarTransport.C
[86] --> FOAM FATAL ERROR: 
[86] Concentration under the threshold
[86] 
[86] 
[86]     From function macroScalarTransport
[86]     in file macroScalarTransport.C at line 103
[27] [47] 
[47] 
[47] 
[55] 
[55] --> FOAM FATAL ERROR: 
[55] Concentration under the threshold
[55] 
 at line 103.
[61] 
FOAM parallel run exiting
[61] 
.
[86] 
FOAM parallel run exiting
[86] 

[27] --> FOAM FATAL ERROR: 
[27] Concentration under the threshold
[27] 
[27] 
[27]     From function macroScalarTransport
Concentration under the threshold
[39] 
[39] 
[39]     From function macroScalarTransport
[39]     in file macroScalarTransport.C at line 103.
[39] [55] 
[55]     From function macroScalarTransport
[55]     in file macroScalarTransport.C at line 103.
[55] 
FOAM parallel run exiting
[55] 
[27]     in file macroScalarTransport.C at line 103.
[27] 
FOAM parallel run exiting
[27] 
--> FOAM FATAL ERROR: 
[47] Concentration under the threshold
[47] 
[47] 
[47]     From function macroScalarTransport
[47]     in file macroScalarTransport.C at line 103.[35] 
FOAM parallel run exiting
[39] 
[7] 


[47] 
FOAM parallel run exiting
[47] 
[7] 
[7] --> FOAM FATAL ERROR: 
[7] Concentration under the threshold
[7] 
[7] 
[7]     From function macroScalarTransport
[7]     in file macroScalarTransport.C at line 103.
[7] 
FOAM parallel run exiting
[7] 
[35] 
[35] --> FOAM FATAL ERROR: 
[35] Concentration under the threshold
[35] 
[35] 
[35]     From function macroScalarTransport
[35]     in file macroScalarTransport.C at line 103.
[35] 
FOAM parallel run exiting
[35] 
[65] 
[65] 
[65] --> FOAM FATAL ERROR: 
[65] Concentration under the threshold
[65] 
[65] 
[65]     From function macroScalarTransport
[65]     in file macroScalarTransport.C at line 103.
[65] 
FOAM parallel run exiting
[65] 
--------------------------------------------------------------------------
MPI_ABORT was invoked on rank 2 in communicator MPI COMMUNICATOR 3 SPLIT FROM 0
with errorcode 1.

NOTE: invoking MPI_ABORT causes Open MPI to kill all MPI processes.
You may or may not see output from other processes, depending on
exactly when Open MPI kills them.
--------------------------------------------------------------------------
[28] 
[28] 
[28] --> FOAM FATAL ERROR: 
[28] Concentration under the threshold
[28] 
[28] 
[28]     From function macroScalarTransport
[28]     in file macroScalarTransport.C at line 103.
[28] 
FOAM parallel run exiting
[28] 
[compute013.int.augusta.nottingham.ac.uk:95542] PMIX ERROR: UNREACHABLE in file server/pmix_server.c at line 2193
[compute013.int.augusta.nottingham.ac.uk:95542] PMIX ERROR: UNREACHABLE in file server/pmix_server.c at line 2193
[compute013.int.augusta.nottingham.ac.uk:95542] PMIX ERROR: UNREACHABLE in file server/pmix_server.c at line 2193
[compute013.int.augusta.nottingham.ac.uk:95542] PMIX ERROR: UNREACHABLE in file server/pmix_server.c at line 2193
[compute013.int.augusta.nottingham.ac.uk:95542] PMIX ERROR: UNREACHABLE in file server/pmix_server.c at line 2193
[compute013.int.augusta.nottingham.ac.uk:95542] PMIX ERROR: UNREACHABLE in file server/pmix_server.c at line 2193
[compute013.int.augusta.nottingham.ac.uk:95542] PMIX ERROR: UNREACHABLE in file server/pmix_server.c at line 2193
[compute013.int.augusta.nottingham.ac.uk:95542] PMIX ERROR: UNREACHABLE in file server/pmix_server.c at line 2193
[compute013.int.augusta.nottingham.ac.uk:95542] PMIX ERROR: UNREACHABLE in file server/pmix_server.c at line 2193
[compute013.int.augusta.nottingham.ac.uk:95542] PMIX ERROR: UNREACHABLE in file server/pmix_server.c at line 2193
[compute013.int.augusta.nottingham.ac.uk:95542] PMIX ERROR: UNREACHABLE in file server/pmix_server.c at line 2193
[11] 
[11] 
[11] --> FOAM FATAL ERROR: 
[11] Concentration under the threshold
[11] 
[11] 
[11]     From function macroScalarTransport
[11]     in file macroScalarTransport.C at line 103.
[11] 
FOAM parallel run exiting
[11] 
[34] 
[34] 
[34] --> FOAM FATAL ERROR: 
[34] Concentration under the threshold
[34] 
[34] 
[34]     From function macroScalarTransport
[34]     in file macroScalarTransport.C at line 103.
[34] 
FOAM parallel run exiting
[34] 
[62] 
[62] 
[62] [88] [40] 
[40] 
[57] --> FOAM FATAL ERROR: 
[62] Concentration under the threshold
[62] 
[62] 
[62]     From function macroScalarTransport
[62]     in file macroScalarTransport.C at line 103.
[62] 
FOAM parallel run exiting
[62] 

[57] 
[57] --> FOAM FATAL ERROR: 
[57] Concentration under the threshold
[57] 
[57] 
[57]     From function macroScalarTransport
[57]     in file macroScalarTransport.C at line 103.
[57] 
FOAM parallel run exiting
[57] 

[88] 
[88] --> FOAM FATAL ERROR: 
[88] Concentration under the threshold
[88] 
[88] 
[88]     From function macroScalarTransport
[88]     in file macroScalarTransport.C at line 103.
[88] 
FOAM parallel run exiting
[88] 
[40] --> FOAM FATAL ERROR: 
[40] Concentration under the threshold
[40] 
[40] 
[40]     From function macroScalarTransport
[40]     in file macroScalarTransport.C at line 103.
[40] 
FOAM parallel run exiting
[40] 
[38] [90] 
[38] 
[38] --> FOAM FATAL ERROR: 
[38] Concentration under the threshold
[38] 
[38] 
[38]     From function macroScalarTransport
[38]     in file macroScalarTransport.C at line 103.
[38] 
FOAM parallel run exiting
[38] 

[90] 
[90] --> FOAM FATAL ERROR: 
[90] Concentration under the threshold
[90] 
[90] 
[90]     From function macroScalarTransport
[90]     in file macroScalarTransport.C at line 103.
[90] 
FOAM parallel run exiting
[90] 
[85] 
[85] 
[85] --> FOAM FATAL ERROR: 
[85] Concentration under the threshold
[85] 
[85] 
[85]     From function macroScalarTransport
[85]     in file macroScalarTransport.C at line 103.
[85] 
FOAM parallel run exiting
[85] 
[22] 
[22] 
[22] --> FOAM FATAL ERROR: 
[22] Concentration under the threshold
[22] 
[22] 
[22]     From function macroScalarTransport
[22]     in file macroScalarTransport.C at line 103.
[22] 
FOAM parallel run exiting
[22] 
[83] 
[83] 
[83] --> FOAM FATAL ERROR: 
[83] Concentration under the threshold
[83] 
[83] 
[83]     From function macroScalarTransport
[83]     in file macroScalarTransport.C at line 103.
[83] 
FOAM parallel run exiting
[83] 
[14] 
[14] 
[14] --> FOAM FATAL ERROR: 
[14] Concentration under the threshold
[14] 
[14] 
[14]     From function macroScalarTransport
[14]     in file macroScalarTransport.C at line 103.
[14] 
FOAM parallel run exiting
[14] 
[81] [63] 
[81] 
[81] --> FOAM FATAL ERROR: 
[81] Concentration under the threshold
[81] 
[81] 
[81]     From function macroScalarTransport
[81]     in file macroScalarTransport.C at line 103.
[81] 
FOAM parallel run exiting
[81] 

[63] 
[63] --> FOAM FATAL ERROR: 
[63] Concentration under the threshold
[63] 
[63] 
[63]     From function macroScalarTransport
[63]     in file macroScalarTransport.C at line 103.
[63] 
FOAM parallel run exiting
[63] 
[17] 
[17] 
[17] --> FOAM FATAL ERROR: 
[17] Concentration under the threshold
[17] 
[17] 
[17]     From function macroScalarTransport
[17]     in file macroScalarTransport.C at line 103.
[17] 
FOAM parallel run exiting
[17] 
[compute013.int.augusta.nottingham.ac.uk:95542] 95 more processes have sent help message help-mpi-api.txt / mpi-abort
[compute013.int.augusta.nottingham.ac.uk:95542] Set MCA parameter "orte_base_help_aggregate" to 0 to see all help / error messages
