/*---------------------------------------------------------------------------*\
  =========                 |
  \\      /  F ield         | OpenFOAM: The Open Source CFD Toolbox
   \\    /   O peration     | Website:  https://openfoam.org
    \\  /    A nd           | Version:  8
     \\/     M anipulation  |
\*---------------------------------------------------------------------------*/
Build  : 8
Exec   : blockMesh
Date   : Nov 05 2022
Time   : 15:51:19
Host   : "compute024.int.augusta.nottingham.ac.uk"
PID    : 220355
I/O    : uncollated
Case   : /gpfs01/home/pmxep5/PGSFlowTransport/tutorials/RESULTS/Herten/varPeclet/lowPeclet
nProcs : 1
sigFpe : Enabling floating point exception trapping (FOAM_SIGFPE).
fileModificationChecking : Monitoring run-time modified files using timeStampMaster (fileModificationSkew 10)
allowSystemOperations : Allowing user-supplied system call operations

// * * * * * * * * * * * * * * * * * * * * * * * * * * * * * * * * * * * * * //
Create time

Creating block mesh from
    "system/blockMeshDict"
Creating block edges
No non-planar block faces defined
Creating topology blocks
Creating topology patches

Creating block mesh topology

Check topology

	Basic statistics
		Number of internal faces : 0
		Number of boundary faces : 6
		Number of defined boundary faces : 6
		Number of undefined boundary faces : 0
	Checking patch -> block consistency

Creating block offsets
Creating merge list .

Creating polyMesh from blockMesh
Creating patches
Creating cells
Creating points with scale 1
    Block 0 cell size :
        i : 0.05 .. 0.05
        j : 0.05 .. 0.05
        k : 0.05 .. 0.05

Writing polyMesh
----------------
Mesh Information
----------------
  boundingBox: (0 0 0) (16 10 7)
  nPoints: 9097461
  nCells: 8960000
  nFaces: 27016800
  nInternalFaces: 26743200
----------------
Patches
----------------
  patch 0 (start: 26743200 size: 28000) name: inlet
  patch 1 (start: 26771200 size: 28000) name: outlet
  patch 2 (start: 26799200 size: 64000) name: lowerWall
  patch 3 (start: 26863200 size: 64000) name: upperWall
  patch 4 (start: 26927200 size: 89600) name: frontAndBack

End

/*---------------------------------------------------------------------------*\
  =========                 |
  \\      /  F ield         | OpenFOAM: The Open Source CFD Toolbox
   \\    /   O peration     | Website:  https://openfoam.org
    \\  /    A nd           | Version:  8
     \\/     M anipulation  |
\*---------------------------------------------------------------------------*/
Build  : 8
Exec   : decomposePar
Date   : Nov 05 2022
Time   : 15:52:14
Host   : "compute024.int.augusta.nottingham.ac.uk"
PID    : 220391
I/O    : uncollated
Case   : /gpfs01/home/pmxep5/PGSFlowTransport/tutorials/RESULTS/Herten/varPeclet/lowPeclet
nProcs : 1
sigFpe : Enabling floating point exception trapping (FOAM_SIGFPE).
fileModificationChecking : Monitoring run-time modified files using timeStampMaster (fileModificationSkew 10)
allowSystemOperations : Allowing user-supplied system call operations

// * * * * * * * * * * * * * * * * * * * * * * * * * * * * * * * * * * * * * //
Create time



Decomposing mesh region0

Create mesh

Calculating distribution of cells
Selecting decompositionMethod simple

Finished decomposition in 5.69 s

Calculating original mesh data

Distributing cells to processors

Distributing faces to processors

Distributing points to processors

Constructing processor meshes

Processor 0
    Number of cells = 94000
    Number of faces shared with processor 1 = 2350
    Number of faces shared with processor 8 = 1880
    Number of faces shared with processor 32 = 2000
    Number of processor patches = 3
    Number of processor faces = 6230
    Number of boundary faces = 6230

Processor 1
    Number of cells = 94000
    Number of faces shared with processor 0 = 2350
    Number of faces shared with processor 2 = 2350
    Number of faces shared with processor 9 = 1880
    Number of faces shared with processor 33 = 2000
    Number of processor patches = 4
    Number of processor faces = 8580
    Number of boundary faces = 3880

Processor 2
    Number of cells = 94000
    Number of faces shared with processor 1 = 2350
    Number of faces shared with processor 3 = 2350
    Number of faces shared with processor 10 = 1880
    Number of faces shared with processor 34 = 2000
    Number of processor patches = 4
    Number of processor faces = 8580
    Number of boundary faces = 3880

Processor 3
    Number of cells = 94000
    Number of faces shared with processor 2 = 2350
    Number of faces shared with processor 4 = 2350
    Number of faces shared with processor 11 = 1880
    Number of faces shared with processor 35 = 2000
    Number of processor patches = 4
    Number of processor faces = 8580
    Number of boundary faces = 3880

Processor 4
    Number of cells = 94000
    Number of faces shared with processor 3 = 2350
    Number of faces shared with processor 5 = 2350
    Number of faces shared with processor 12 = 1880
    Number of faces shared with processor 36 = 2000
    Number of processor patches = 4
    Number of processor faces = 8580
    Number of boundary faces = 3880

Processor 5
    Number of cells = 94000
    Number of faces shared with processor 4 = 2350
    Number of faces shared with processor 6 = 2350
    Number of faces shared with processor 13 = 1880
    Number of faces shared with processor 37 = 2000
    Number of processor patches = 4
    Number of processor faces = 8580
    Number of boundary faces = 3880

Processor 6
    Number of cells = 93864
    Number of faces shared with processor 5 = 2350
    Number of faces shared with processor 7 = 2332
    Number of faces shared with processor 14 = 1863
    Number of faces shared with processor 38 = 2032
    Number of faces shared with processor 39 = 2
    Number of faces shared with processor 46 = 1
    Number of processor patches = 6
    Number of processor faces = 8580
    Number of boundary faces = 3880

Processor 7
    Number of cells = 92528
    Number of faces shared with processor 6 = 2332
    Number of faces shared with processor 15 = 1840
    Number of faces shared with processor 39 = 2064
    Number of processor patches = 3
    Number of processor faces = 6236
    Number of boundary faces = 6172

Processor 8
    Number of cells = 94000
    Number of faces shared with processor 0 = 1880
    Number of faces shared with processor 9 = 2350
    Number of faces shared with processor 16 = 1880
    Number of faces shared with processor 40 = 2000
    Number of processor patches = 4
    Number of processor faces = 8110
    Number of boundary faces = 4350

Processor 9
    Number of cells = 94000
    Number of faces shared with processor 1 = 1880
    Number of faces shared with processor 8 = 2350
    Number of faces shared with processor 10 = 2350
    Number of faces shared with processor 17 = 1880
    Number of faces shared with processor 41 = 2000
    Number of processor patches = 5
    Number of processor faces = 10460
    Number of boundary faces = 2000

Processor 10
    Number of cells = 94000
    Number of faces shared with processor 2 = 1880
    Number of faces shared with processor 9 = 2350
    Number of faces shared with processor 11 = 2350
    Number of faces shared with processor 18 = 1880
    Number of faces shared with processor 42 = 2000
    Number of processor patches = 5
    Number of processor faces = 10460
    Number of boundary faces = 2000

Processor 11
    Number of cells = 94000
    Number of faces shared with processor 3 = 1880
    Number of faces shared with processor 10 = 2350
    Number of faces shared with processor 12 = 2350
    Number of faces shared with processor 19 = 1880
    Number of faces shared with processor 43 = 2000
    Number of processor patches = 5
    Number of processor faces = 10460
    Number of boundary faces = 2000

Processor 12
    Number of cells = 94000
    Number of faces shared with processor 4 = 1880
    Number of faces shared with processor 11 = 2350
    Number of faces shared with processor 13 = 2350
    Number of faces shared with processor 20 = 1880
    Number of faces shared with processor 44 = 2000
    Number of processor patches = 5
    Number of processor faces = 10460
    Number of boundary faces = 2000

Processor 13
    Number of cells = 93649
    Number of faces shared with processor 5 = 1880
    Number of faces shared with processor 12 = 2350
    Number of faces shared with processor 14 = 2323
    Number of faces shared with processor 21 = 1853
    Number of faces shared with processor 45 = 2052
    Number of faces shared with processor 46 = 1
    Number of faces shared with processor 53 = 1
    Number of processor patches = 7
    Number of processor faces = 10460
    Number of boundary faces = 2000

Processor 14
    Number of cells = 92276
    Number of faces shared with processor 6 = 1863
    Number of faces shared with processor 13 = 2323
    Number of faces shared with processor 15 = 2300
    Number of faces shared with processor 22 = 1840
    Number of faces shared with processor 46 = 2046
    Number of processor patches = 5
    Number of processor faces = 10372
    Number of boundary faces = 2000

Processor 15
    Number of cells = 92000
    Number of faces shared with processor 7 = 1840
    Number of faces shared with processor 14 = 2300
    Number of faces shared with processor 23 = 1840
    Number of faces shared with processor 47 = 2000
    Number of processor patches = 4
    Number of processor faces = 7980
    Number of boundary faces = 4300

Processor 16
    Number of cells = 94000
    Number of faces shared with processor 8 = 1880
    Number of faces shared with processor 17 = 2350
    Number of faces shared with processor 24 = 1880
    Number of faces shared with processor 48 = 2000
    Number of processor patches = 4
    Number of processor faces = 8110
    Number of boundary faces = 4350

Processor 17
    Number of cells = 94000
    Number of faces shared with processor 9 = 1880
    Number of faces shared with processor 16 = 2350
    Number of faces shared with processor 18 = 2350
    Number of faces shared with processor 25 = 1880
    Number of faces shared with processor 49 = 2000
    Number of processor patches = 5
    Number of processor faces = 10460
    Number of boundary faces = 2000

Processor 18
    Number of cells = 94000
    Number of faces shared with processor 10 = 1880
    Number of faces shared with processor 17 = 2350
    Number of faces shared with processor 19 = 2350
    Number of faces shared with processor 26 = 1880
    Number of faces shared with processor 50 = 2000
    Number of processor patches = 5
    Number of processor faces = 10460
    Number of boundary faces = 2000

Processor 19
    Number of cells = 94000
    Number of faces shared with processor 11 = 1880
    Number of faces shared with processor 18 = 2350
    Number of faces shared with processor 20 = 2350
    Number of faces shared with processor 27 = 1880
    Number of faces shared with processor 51 = 2000
    Number of processor patches = 5
    Number of processor faces = 10460
    Number of boundary faces = 2000

Processor 20
    Number of cells = 93334
    Number of faces shared with processor 12 = 1880
    Number of faces shared with processor 19 = 2350
    Number of faces shared with processor 21 = 2313
    Number of faces shared with processor 28 = 1843
    Number of faces shared with processor 52 = 2072
    Number of faces shared with processor 53 = 1
    Number of faces shared with processor 60 = 1
    Number of processor patches = 7
    Number of processor faces = 10460
    Number of boundary faces = 2000

Processor 21
    Number of cells = 92091
    Number of faces shared with processor 13 = 1853
    Number of faces shared with processor 20 = 2313
    Number of faces shared with processor 22 = 2300
    Number of faces shared with processor 29 = 1840
    Number of faces shared with processor 53 = 2026
    Number of processor patches = 5
    Number of processor faces = 10332
    Number of boundary faces = 2000

Processor 22
    Number of cells = 92000
    Number of faces shared with processor 14 = 1840
    Number of faces shared with processor 21 = 2300
    Number of faces shared with processor 23 = 2300
    Number of faces shared with processor 30 = 1840
    Number of faces shared with processor 54 = 2000
    Number of processor patches = 5
    Number of processor faces = 10280
    Number of boundary faces = 2000

Processor 23
    Number of cells = 92000
    Number of faces shared with processor 15 = 1840
    Number of faces shared with processor 22 = 2300
    Number of faces shared with processor 31 = 1840
    Number of faces shared with processor 55 = 2000
    Number of processor patches = 4
    Number of processor faces = 7980
    Number of boundary faces = 4300

Processor 24
    Number of cells = 94000
    Number of faces shared with processor 16 = 1880
    Number of faces shared with processor 25 = 2350
    Number of faces shared with processor 56 = 2000
    Number of processor patches = 3
    Number of processor faces = 6230
    Number of boundary faces = 6230

Processor 25
    Number of cells = 94000
    Number of faces shared with processor 17 = 1880
    Number of faces shared with processor 24 = 2350
    Number of faces shared with processor 26 = 2350
    Number of faces shared with processor 57 = 2000
    Number of processor patches = 4
    Number of processor faces = 8580
    Number of boundary faces = 3880

Processor 26
    Number of cells = 93979
    Number of faces shared with processor 18 = 1880
    Number of faces shared with processor 25 = 2350
    Number of faces shared with processor 27 = 2343
    Number of faces shared with processor 58 = 2012
    Number of faces shared with processor 59 = 1
    Number of processor patches = 5
    Number of processor faces = 8586
    Number of boundary faces = 3874

Processor 27
    Number of cells = 92940
    Number of faces shared with processor 19 = 1880
    Number of faces shared with processor 26 = 2343
    Number of faces shared with processor 28 = 2303
    Number of faces shared with processor 59 = 2079
    Number of faces shared with processor 60 = 1
    Number of processor patches = 5
    Number of processor faces = 8606
    Number of boundary faces = 3840

Processor 28
    Number of cells = 92006
    Number of faces shared with processor 20 = 1843
    Number of faces shared with processor 27 = 2303
    Number of faces shared with processor 29 = 2300
    Number of faces shared with processor 60 = 2006
    Number of processor patches = 4
    Number of processor faces = 8452
    Number of boundary faces = 3840

Processor 29
    Number of cells = 92000
    Number of faces shared with processor 21 = 1840
    Number of faces shared with processor 28 = 2300
    Number of faces shared with processor 30 = 2300
    Number of faces shared with processor 61 = 2000
    Number of processor patches = 4
    Number of processor faces = 8440
    Number of boundary faces = 3840

Processor 30
    Number of cells = 92000
    Number of faces shared with processor 22 = 1840
    Number of faces shared with processor 29 = 2300
    Number of faces shared with processor 31 = 2300
    Number of faces shared with processor 62 = 2000
    Number of processor patches = 4
    Number of processor faces = 8440
    Number of boundary faces = 3840

Processor 31
    Number of cells = 92000
    Number of faces shared with processor 23 = 1840
    Number of faces shared with processor 30 = 2300
    Number of faces shared with processor 63 = 2000
    Number of processor patches = 3
    Number of processor faces = 6140
    Number of boundary faces = 6140

Processor 32
    Number of cells = 94000
    Number of faces shared with processor 0 = 2000
    Number of faces shared with processor 33 = 2350
    Number of faces shared with processor 40 = 1880
    Number of faces shared with processor 64 = 2000
    Number of processor patches = 4
    Number of processor faces = 8230
    Number of boundary faces = 4230

Processor 33
    Number of cells = 94000
    Number of faces shared with processor 1 = 2000
    Number of faces shared with processor 32 = 2350
    Number of faces shared with processor 34 = 2350
    Number of faces shared with processor 41 = 1880
    Number of faces shared with processor 65 = 2000
    Number of processor patches = 5
    Number of processor faces = 10580
    Number of boundary faces = 1880

Processor 34
    Number of cells = 94000
    Number of faces shared with processor 2 = 2000
    Number of faces shared with processor 33 = 2350
    Number of faces shared with processor 35 = 2350
    Number of faces shared with processor 42 = 1880
    Number of faces shared with processor 66 = 2000
    Number of processor patches = 5
    Number of processor faces = 10580
    Number of boundary faces = 1880

Processor 35
    Number of cells = 93994
    Number of faces shared with processor 3 = 2000
    Number of faces shared with processor 34 = 2350
    Number of faces shared with processor 36 = 2346
    Number of faces shared with processor 43 = 1876
    Number of faces shared with processor 67 = 2006
    Number of faces shared with processor 68 = 1
    Number of faces shared with processor 75 = 1
    Number of processor patches = 7
    Number of processor faces = 10580
    Number of boundary faces = 1880

Processor 36
    Number of cells = 93060
    Number of faces shared with processor 4 = 2000
    Number of faces shared with processor 35 = 2346
    Number of faces shared with processor 37 = 2306
    Number of faces shared with processor 44 = 1840
    Number of faces shared with processor 68 = 2079
    Number of faces shared with processor 69 = 1
    Number of processor patches = 6
    Number of processor faces = 10572
    Number of boundary faces = 1880

Processor 37
    Number of cells = 92021
    Number of faces shared with processor 5 = 2000
    Number of faces shared with processor 36 = 2306
    Number of faces shared with processor 38 = 2300
    Number of faces shared with processor 45 = 1840
    Number of faces shared with processor 69 = 2012
    Number of processor patches = 5
    Number of processor faces = 10458
    Number of boundary faces = 1846

Processor 38
    Number of cells = 92136
    Number of faces shared with processor 6 = 2032
    Number of faces shared with processor 37 = 2300
    Number of faces shared with processor 39 = 2316
    Number of faces shared with processor 46 = 1856
    Number of faces shared with processor 70 = 2000
    Number of processor patches = 5
    Number of processor faces = 10504
    Number of boundary faces = 1840

Processor 39
    Number of cells = 93472
    Number of faces shared with processor 6 = 2
    Number of faces shared with processor 7 = 2064
    Number of faces shared with processor 38 = 2316
    Number of faces shared with processor 47 = 1880
    Number of faces shared with processor 71 = 2000
    Number of processor patches = 5
    Number of processor faces = 8262
    Number of boundary faces = 4198

Processor 40
    Number of cells = 94000
    Number of faces shared with processor 8 = 2000
    Number of faces shared with processor 32 = 1880
    Number of faces shared with processor 41 = 2350
    Number of faces shared with processor 48 = 1880
    Number of faces shared with processor 72 = 2000
    Number of processor patches = 5
    Number of processor faces = 10110
    Number of boundary faces = 2350

Processor 41
    Number of cells = 94000
    Number of faces shared with processor 9 = 2000
    Number of faces shared with processor 33 = 1880
    Number of faces shared with processor 40 = 2350
    Number of faces shared with processor 42 = 2350
    Number of faces shared with processor 49 = 1880
    Number of faces shared with processor 73 = 2000
    Number of processor patches = 6
    Number of processor faces = 12460
    Number of boundary faces = 0

Processor 42
    Number of cells = 93909
    Number of faces shared with processor 10 = 2000
    Number of faces shared with processor 34 = 1880
    Number of faces shared with processor 41 = 2350
    Number of faces shared with processor 43 = 2336
    Number of faces shared with processor 50 = 1866
    Number of faces shared with processor 74 = 2026
    Number of faces shared with processor 75 = 1
    Number of faces shared with processor 82 = 1
    Number of processor patches = 8
    Number of processor faces = 12460
    Number of boundary faces = 0

Processor 43
    Number of cells = 92666
    Number of faces shared with processor 11 = 2000
    Number of faces shared with processor 35 = 1876
    Number of faces shared with processor 42 = 2336
    Number of faces shared with processor 44 = 2300
    Number of faces shared with processor 51 = 1840
    Number of faces shared with processor 75 = 2072
    Number of processor patches = 6
    Number of processor faces = 12424
    Number of boundary faces = 0

Processor 44
    Number of cells = 92000
    Number of faces shared with processor 12 = 2000
    Number of faces shared with processor 36 = 1840
    Number of faces shared with processor 43 = 2300
    Number of faces shared with processor 45 = 2300
    Number of faces shared with processor 52 = 1840
    Number of faces shared with processor 76 = 2000
    Number of processor patches = 6
    Number of processor faces = 12280
    Number of boundary faces = 0

Processor 45
    Number of cells = 92351
    Number of faces shared with processor 13 = 2052
    Number of faces shared with processor 37 = 1840
    Number of faces shared with processor 44 = 2300
    Number of faces shared with processor 46 = 2326
    Number of faces shared with processor 53 = 1866
    Number of faces shared with processor 77 = 2000
    Number of processor patches = 6
    Number of processor faces = 12384
    Number of boundary faces = 0

Processor 46
    Number of cells = 93724
    Number of faces shared with processor 6 = 1
    Number of faces shared with processor 13 = 1
    Number of faces shared with processor 14 = 2046
    Number of faces shared with processor 38 = 1856
    Number of faces shared with processor 45 = 2326
    Number of faces shared with processor 47 = 2350
    Number of faces shared with processor 54 = 1880
    Number of faces shared with processor 78 = 2000
    Number of processor patches = 8
    Number of processor faces = 12460
    Number of boundary faces = 0

Processor 47
    Number of cells = 94000
    Number of faces shared with processor 15 = 2000
    Number of faces shared with processor 39 = 1880
    Number of faces shared with processor 46 = 2350
    Number of faces shared with processor 55 = 1880
    Number of faces shared with processor 79 = 2000
    Number of processor patches = 5
    Number of processor faces = 10110
    Number of boundary faces = 2350

Processor 48
    Number of cells = 94000
    Number of faces shared with processor 16 = 2000
    Number of faces shared with processor 40 = 1880
    Number of faces shared with processor 49 = 2350
    Number of faces shared with processor 56 = 1880
    Number of faces shared with processor 80 = 2000
    Number of processor patches = 5
    Number of processor faces = 10110
    Number of boundary faces = 2350

Processor 49
    Number of cells = 93724
    Number of faces shared with processor 17 = 2000
    Number of faces shared with processor 41 = 1880
    Number of faces shared with processor 48 = 2350
    Number of faces shared with processor 50 = 2326
    Number of faces shared with processor 57 = 1856
    Number of faces shared with processor 81 = 2046
    Number of faces shared with processor 82 = 1
    Number of faces shared with processor 89 = 1
    Number of processor patches = 8
    Number of processor faces = 12460
    Number of boundary faces = 0

Processor 50
    Number of cells = 92351
    Number of faces shared with processor 18 = 2000
    Number of faces shared with processor 42 = 1866
    Number of faces shared with processor 49 = 2326
    Number of faces shared with processor 51 = 2300
    Number of faces shared with processor 58 = 1840
    Number of faces shared with processor 82 = 2052
    Number of processor patches = 6
    Number of processor faces = 12384
    Number of boundary faces = 0

Processor 51
    Number of cells = 92000
    Number of faces shared with processor 19 = 2000
    Number of faces shared with processor 43 = 1840
    Number of faces shared with processor 50 = 2300
    Number of faces shared with processor 52 = 2300
    Number of faces shared with processor 59 = 1840
    Number of faces shared with processor 83 = 2000
    Number of processor patches = 6
    Number of processor faces = 12280
    Number of boundary faces = 0

Processor 52
    Number of cells = 92666
    Number of faces shared with processor 20 = 2072
    Number of faces shared with processor 44 = 1840
    Number of faces shared with processor 51 = 2300
    Number of faces shared with processor 53 = 2336
    Number of faces shared with processor 60 = 1876
    Number of faces shared with processor 84 = 2000
    Number of processor patches = 6
    Number of processor faces = 12424
    Number of boundary faces = 0

Processor 53
    Number of cells = 93909
    Number of faces shared with processor 13 = 1
    Number of faces shared with processor 20 = 1
    Number of faces shared with processor 21 = 2026
    Number of faces shared with processor 45 = 1866
    Number of faces shared with processor 52 = 2336
    Number of faces shared with processor 54 = 2350
    Number of faces shared with processor 61 = 1880
    Number of faces shared with processor 85 = 2000
    Number of processor patches = 8
    Number of processor faces = 12460
    Number of boundary faces = 0

Processor 54
    Number of cells = 94000
    Number of faces shared with processor 22 = 2000
    Number of faces shared with processor 46 = 1880
    Number of faces shared with processor 53 = 2350
    Number of faces shared with processor 55 = 2350
    Number of faces shared with processor 62 = 1880
    Number of faces shared with processor 86 = 2000
    Number of processor patches = 6
    Number of processor faces = 12460
    Number of boundary faces = 0

Processor 55
    Number of cells = 94000
    Number of faces shared with processor 23 = 2000
    Number of faces shared with processor 47 = 1880
    Number of faces shared with processor 54 = 2350
    Number of faces shared with processor 63 = 1880
    Number of faces shared with processor 87 = 2000
    Number of processor patches = 5
    Number of processor faces = 10110
    Number of boundary faces = 2350

Processor 56
    Number of cells = 93472
    Number of faces shared with processor 24 = 2000
    Number of faces shared with processor 48 = 1880
    Number of faces shared with processor 57 = 2317
    Number of faces shared with processor 88 = 2064
    Number of faces shared with processor 89 = 1
    Number of processor patches = 5
    Number of processor faces = 8262
    Number of boundary faces = 4198

Processor 57
    Number of cells = 92137
    Number of faces shared with processor 25 = 2000
    Number of faces shared with processor 49 = 1856
    Number of faces shared with processor 56 = 2317
    Number of faces shared with processor 58 = 2300
    Number of faces shared with processor 89 = 2033
    Number of processor patches = 5
    Number of processor faces = 10506
    Number of boundary faces = 1840

Processor 58
    Number of cells = 92021
    Number of faces shared with processor 26 = 2012
    Number of faces shared with processor 50 = 1840
    Number of faces shared with processor 57 = 2300
    Number of faces shared with processor 59 = 2306
    Number of faces shared with processor 90 = 2000
    Number of processor patches = 5
    Number of processor faces = 10458
    Number of boundary faces = 1846

Processor 59
    Number of cells = 93060
    Number of faces shared with processor 26 = 1
    Number of faces shared with processor 27 = 2079
    Number of faces shared with processor 51 = 1840
    Number of faces shared with processor 58 = 2306
    Number of faces shared with processor 60 = 2346
    Number of faces shared with processor 91 = 2000
    Number of processor patches = 6
    Number of processor faces = 10572
    Number of boundary faces = 1880

Processor 60
    Number of cells = 93994
    Number of faces shared with processor 20 = 1
    Number of faces shared with processor 27 = 1
    Number of faces shared with processor 28 = 2006
    Number of faces shared with processor 52 = 1876
    Number of faces shared with processor 59 = 2346
    Number of faces shared with processor 61 = 2350
    Number of faces shared with processor 92 = 2000
    Number of processor patches = 7
    Number of processor faces = 10580
    Number of boundary faces = 1880

Processor 61
    Number of cells = 94000
    Number of faces shared with processor 29 = 2000
    Number of faces shared with processor 53 = 1880
    Number of faces shared with processor 60 = 2350
    Number of faces shared with processor 62 = 2350
    Number of faces shared with processor 93 = 2000
    Number of processor patches = 5
    Number of processor faces = 10580
    Number of boundary faces = 1880

Processor 62
    Number of cells = 94000
    Number of faces shared with processor 30 = 2000
    Number of faces shared with processor 54 = 1880
    Number of faces shared with processor 61 = 2350
    Number of faces shared with processor 63 = 2350
    Number of faces shared with processor 94 = 2000
    Number of processor patches = 5
    Number of processor faces = 10580
    Number of boundary faces = 1880

Processor 63
    Number of cells = 94000
    Number of faces shared with processor 31 = 2000
    Number of faces shared with processor 55 = 1880
    Number of faces shared with processor 62 = 2350
    Number of faces shared with processor 95 = 2000
    Number of processor patches = 4
    Number of processor faces = 8230
    Number of boundary faces = 4230

Processor 64
    Number of cells = 92000
    Number of faces shared with processor 32 = 2000
    Number of faces shared with processor 65 = 2300
    Number of faces shared with processor 72 = 1840
    Number of processor patches = 3
    Number of processor faces = 6140
    Number of boundary faces = 6140

Processor 65
    Number of cells = 92000
    Number of faces shared with processor 33 = 2000
    Number of faces shared with processor 64 = 2300
    Number of faces shared with processor 66 = 2300
    Number of faces shared with processor 73 = 1840
    Number of processor patches = 4
    Number of processor faces = 8440
    Number of boundary faces = 3840

Processor 66
    Number of cells = 92000
    Number of faces shared with processor 34 = 2000
    Number of faces shared with processor 65 = 2300
    Number of faces shared with processor 67 = 2300
    Number of faces shared with processor 74 = 1840
    Number of processor patches = 4
    Number of processor faces = 8440
    Number of boundary faces = 3840

Processor 67
    Number of cells = 92006
    Number of faces shared with processor 35 = 2006
    Number of faces shared with processor 66 = 2300
    Number of faces shared with processor 68 = 2303
    Number of faces shared with processor 75 = 1843
    Number of processor patches = 4
    Number of processor faces = 8452
    Number of boundary faces = 3840

Processor 68
    Number of cells = 92940
    Number of faces shared with processor 35 = 1
    Number of faces shared with processor 36 = 2079
    Number of faces shared with processor 67 = 2303
    Number of faces shared with processor 69 = 2343
    Number of faces shared with processor 76 = 1880
    Number of processor patches = 5
    Number of processor faces = 8606
    Number of boundary faces = 3840

Processor 69
    Number of cells = 93979
    Number of faces shared with processor 36 = 1
    Number of faces shared with processor 37 = 2012
    Number of faces shared with processor 68 = 2343
    Number of faces shared with processor 70 = 2350
    Number of faces shared with processor 77 = 1880
    Number of processor patches = 5
    Number of processor faces = 8586
    Number of boundary faces = 3874

Processor 70
    Number of cells = 94000
    Number of faces shared with processor 38 = 2000
    Number of faces shared with processor 69 = 2350
    Number of faces shared with processor 71 = 2350
    Number of faces shared with processor 78 = 1880
    Number of processor patches = 4
    Number of processor faces = 8580
    Number of boundary faces = 3880

Processor 71
    Number of cells = 94000
    Number of faces shared with processor 39 = 2000
    Number of faces shared with processor 70 = 2350
    Number of faces shared with processor 79 = 1880
    Number of processor patches = 3
    Number of processor faces = 6230
    Number of boundary faces = 6230

Processor 72
    Number of cells = 92000
    Number of faces shared with processor 40 = 2000
    Number of faces shared with processor 64 = 1840
    Number of faces shared with processor 73 = 2300
    Number of faces shared with processor 80 = 1840
    Number of processor patches = 4
    Number of processor faces = 7980
    Number of boundary faces = 4300

Processor 73
    Number of cells = 92000
    Number of faces shared with processor 41 = 2000
    Number of faces shared with processor 65 = 1840
    Number of faces shared with processor 72 = 2300
    Number of faces shared with processor 74 = 2300
    Number of faces shared with processor 81 = 1840
    Number of processor patches = 5
    Number of processor faces = 10280
    Number of boundary faces = 2000

Processor 74
    Number of cells = 92091
    Number of faces shared with processor 42 = 2026
    Number of faces shared with processor 66 = 1840
    Number of faces shared with processor 73 = 2300
    Number of faces shared with processor 75 = 2313
    Number of faces shared with processor 82 = 1853
    Number of processor patches = 5
    Number of processor faces = 10332
    Number of boundary faces = 2000

Processor 75
    Number of cells = 93334
    Number of faces shared with processor 35 = 1
    Number of faces shared with processor 42 = 1
    Number of faces shared with processor 43 = 2072
    Number of faces shared with processor 67 = 1843
    Number of faces shared with processor 74 = 2313
    Number of faces shared with processor 76 = 2350
    Number of faces shared with processor 83 = 1880
    Number of processor patches = 7
    Number of processor faces = 10460
    Number of boundary faces = 2000

Processor 76
    Number of cells = 94000
    Number of faces shared with processor 44 = 2000
    Number of faces shared with processor 68 = 1880
    Number of faces shared with processor 75 = 2350
    Number of faces shared with processor 77 = 2350
    Number of faces shared with processor 84 = 1880
    Number of processor patches = 5
    Number of processor faces = 10460
    Number of boundary faces = 2000

Processor 77
    Number of cells = 94000
    Number of faces shared with processor 45 = 2000
    Number of faces shared with processor 69 = 1880
    Number of faces shared with processor 76 = 2350
    Number of faces shared with processor 78 = 2350
    Number of faces shared with processor 85 = 1880
    Number of processor patches = 5
    Number of processor faces = 10460
    Number of boundary faces = 2000

Processor 78
    Number of cells = 94000
    Number of faces shared with processor 46 = 2000
    Number of faces shared with processor 70 = 1880
    Number of faces shared with processor 77 = 2350
    Number of faces shared with processor 79 = 2350
    Number of faces shared with processor 86 = 1880
    Number of processor patches = 5
    Number of processor faces = 10460
    Number of boundary faces = 2000

Processor 79
    Number of cells = 94000
    Number of faces shared with processor 47 = 2000
    Number of faces shared with processor 71 = 1880
    Number of faces shared with processor 78 = 2350
    Number of faces shared with processor 87 = 1880
    Number of processor patches = 4
    Number of processor faces = 8110
    Number of boundary faces = 4350

Processor 80
    Number of cells = 92000
    Number of faces shared with processor 48 = 2000
    Number of faces shared with processor 72 = 1840
    Number of faces shared with processor 81 = 2300
    Number of faces shared with processor 88 = 1840
    Number of processor patches = 4
    Number of processor faces = 7980
    Number of boundary faces = 4300

Processor 81
    Number of cells = 92276
    Number of faces shared with processor 49 = 2046
    Number of faces shared with processor 73 = 1840
    Number of faces shared with processor 80 = 2300
    Number of faces shared with processor 82 = 2323
    Number of faces shared with processor 89 = 1863
    Number of processor patches = 5
    Number of processor faces = 10372
    Number of boundary faces = 2000

Processor 82
    Number of cells = 93649
    Number of faces shared with processor 42 = 1
    Number of faces shared with processor 49 = 1
    Number of faces shared with processor 50 = 2052
    Number of faces shared with processor 74 = 1853
    Number of faces shared with processor 81 = 2323
    Number of faces shared with processor 83 = 2350
    Number of faces shared with processor 90 = 1880
    Number of processor patches = 7
    Number of processor faces = 10460
    Number of boundary faces = 2000

Processor 83
    Number of cells = 94000
    Number of faces shared with processor 51 = 2000
    Number of faces shared with processor 75 = 1880
    Number of faces shared with processor 82 = 2350
    Number of faces shared with processor 84 = 2350
    Number of faces shared with processor 91 = 1880
    Number of processor patches = 5
    Number of processor faces = 10460
    Number of boundary faces = 2000

Processor 84
    Number of cells = 94000
    Number of faces shared with processor 52 = 2000
    Number of faces shared with processor 76 = 1880
    Number of faces shared with processor 83 = 2350
    Number of faces shared with processor 85 = 2350
    Number of faces shared with processor 92 = 1880
    Number of processor patches = 5
    Number of processor faces = 10460
    Number of boundary faces = 2000

Processor 85
    Number of cells = 94000
    Number of faces shared with processor 53 = 2000
    Number of faces shared with processor 77 = 1880
    Number of faces shared with processor 84 = 2350
    Number of faces shared with processor 86 = 2350
    Number of faces shared with processor 93 = 1880
    Number of processor patches = 5
    Number of processor faces = 10460
    Number of boundary faces = 2000

Processor 86
    Number of cells = 94000
    Number of faces shared with processor 54 = 2000
    Number of faces shared with processor 78 = 1880
    Number of faces shared with processor 85 = 2350
    Number of faces shared with processor 87 = 2350
    Number of faces shared with processor 94 = 1880
    Number of processor patches = 5
    Number of processor faces = 10460
    Number of boundary faces = 2000

Processor 87
    Number of cells = 94000
    Number of faces shared with processor 55 = 2000
    Number of faces shared with processor 79 = 1880
    Number of faces shared with processor 86 = 2350
    Number of faces shared with processor 95 = 1880
    Number of processor patches = 4
    Number of processor faces = 8110
    Number of boundary faces = 4350

Processor 88
    Number of cells = 92528
    Number of faces shared with processor 56 = 2064
    Number of faces shared with processor 80 = 1840
    Number of faces shared with processor 89 = 2332
    Number of processor patches = 3
    Number of processor faces = 6236
    Number of boundary faces = 6172

Processor 89
    Number of cells = 93863
    Number of faces shared with processor 49 = 1
    Number of faces shared with processor 56 = 1
    Number of faces shared with processor 57 = 2033
    Number of faces shared with processor 81 = 1863
    Number of faces shared with processor 88 = 2332
    Number of faces shared with processor 90 = 2350
    Number of processor patches = 6
    Number of processor faces = 8580
    Number of boundary faces = 3880

Processor 90
    Number of cells = 94000
    Number of faces shared with processor 58 = 2000
    Number of faces shared with processor 82 = 1880
    Number of faces shared with processor 89 = 2350
    Number of faces shared with processor 91 = 2350
    Number of processor patches = 4
    Number of processor faces = 8580
    Number of boundary faces = 3880

Processor 91
    Number of cells = 94000
    Number of faces shared with processor 59 = 2000
    Number of faces shared with processor 83 = 1880
    Number of faces shared with processor 90 = 2350
    Number of faces shared with processor 92 = 2350
    Number of processor patches = 4
    Number of processor faces = 8580
    Number of boundary faces = 3880

Processor 92
    Number of cells = 94000
    Number of faces shared with processor 60 = 2000
    Number of faces shared with processor 84 = 1880
    Number of faces shared with processor 91 = 2350
    Number of faces shared with processor 93 = 2350
    Number of processor patches = 4
    Number of processor faces = 8580
    Number of boundary faces = 3880

Processor 93
    Number of cells = 94000
    Number of faces shared with processor 61 = 2000
    Number of faces shared with processor 85 = 1880
    Number of faces shared with processor 92 = 2350
    Number of faces shared with processor 94 = 2350
    Number of processor patches = 4
    Number of processor faces = 8580
    Number of boundary faces = 3880

Processor 94
    Number of cells = 94000
    Number of faces shared with processor 62 = 2000
    Number of faces shared with processor 86 = 1880
    Number of faces shared with processor 93 = 2350
    Number of faces shared with processor 95 = 2350
    Number of processor patches = 4
    Number of processor faces = 8580
    Number of boundary faces = 3880

Processor 95
    Number of cells = 94000
    Number of faces shared with processor 63 = 2000
    Number of faces shared with processor 87 = 1880
    Number of faces shared with processor 94 = 2350
    Number of processor patches = 3
    Number of processor faces = 6230
    Number of boundary faces = 6230

Number of processor faces = 459179
Max number of cells = 94000 (0.714286% above average 93333.3)
Max number of processor patches = 8 (62.7119% above average 4.91667)
Max number of faces between processors = 12460 (30.2499% above average 9566.23)

Time = 0

Processor 0: field transfer
Processor 1: field transfer
Processor 2: field transfer
Processor 3: field transfer
Processor 4: field transfer
Processor 5: field transfer
Processor 6: field transfer
Processor 7: field transfer
Processor 8: field transfer
Processor 9: field transfer
Processor 10: field transfer
Processor 11: field transfer
Processor 12: field transfer
Processor 13: field transfer
Processor 14: field transfer
Processor 15: field transfer
Processor 16: field transfer
Processor 17: field transfer
Processor 18: field transfer
Processor 19: field transfer
Processor 20: field transfer
Processor 21: field transfer
Processor 22: field transfer
Processor 23: field transfer
Processor 24: field transfer
Processor 25: field transfer
Processor 26: field transfer
Processor 27: field transfer
Processor 28: field transfer
Processor 29: field transfer
Processor 30: field transfer
Processor 31: field transfer
Processor 32: field transfer
Processor 33: field transfer
Processor 34: field transfer
Processor 35: field transfer
Processor 36: field transfer
Processor 37: field transfer
Processor 38: field transfer
Processor 39: field transfer
Processor 40: field transfer
Processor 41: field transfer
Processor 42: field transfer
Processor 43: field transfer
Processor 44: field transfer
Processor 45: field transfer
Processor 46: field transfer
Processor 47: field transfer
Processor 48: field transfer
Processor 49: field transfer
Processor 50: field transfer
Processor 51: field transfer
Processor 52: field transfer
Processor 53: field transfer
Processor 54: field transfer
Processor 55: field transfer
Processor 56: field transfer
Processor 57: field transfer
Processor 58: field transfer
Processor 59: field transfer
Processor 60: field transfer
Processor 61: field transfer
Processor 62: field transfer
Processor 63: field transfer
Processor 64: field transfer
Processor 65: field transfer
Processor 66: field transfer
Processor 67: field transfer
Processor 68: field transfer
Processor 69: field transfer
Processor 70: field transfer
Processor 71: field transfer
Processor 72: field transfer
Processor 73: field transfer
Processor 74: field transfer
Processor 75: field transfer
Processor 76: field transfer
Processor 77: field transfer
Processor 78: field transfer
Processor 79: field transfer
Processor 80: field transfer
Processor 81: field transfer
Processor 82: field transfer
Processor 83: field transfer
Processor 84: field transfer
Processor 85: field transfer
Processor 86: field transfer
Processor 87: field transfer
Processor 88: field transfer
Processor 89: field transfer
Processor 90: field transfer
Processor 91: field transfer
Processor 92: field transfer
Processor 93: field transfer
Processor 94: field transfer
Processor 95: field transfer

End

/*---------------------------------------------------------------------------*\
  =========                 |
  \\      /  F ield         | OpenFOAM: The Open Source CFD Toolbox
   \\    /   O peration     | Website:  https://openfoam.org
    \\  /    A nd           | Version:  8
     \\/     M anipulation  |
\*---------------------------------------------------------------------------*/
Build  : 8
Exec   : simpleDarcyFoam -parallel
Date   : Nov 05 2022
Time   : 15:54:40
Host   : "compute024.int.augusta.nottingham.ac.uk"
PID    : 220510
I/O    : uncollated
Case   : /gpfs01/home/pmxep5/PGSFlowTransport/tutorials/RESULTS/Herten/varPeclet/lowPeclet
nProcs : 96
Slaves : 
95
(
"compute024.int.augusta.nottingham.ac.uk.220511"
"compute024.int.augusta.nottingham.ac.uk.220512"
"compute024.int.augusta.nottingham.ac.uk.220513"
"compute024.int.augusta.nottingham.ac.uk.220514"
"compute024.int.augusta.nottingham.ac.uk.220515"
"compute024.int.augusta.nottingham.ac.uk.220516"
"compute024.int.augusta.nottingham.ac.uk.220517"
"compute024.int.augusta.nottingham.ac.uk.220518"
"compute024.int.augusta.nottingham.ac.uk.220519"
"compute024.int.augusta.nottingham.ac.uk.220520"
"compute024.int.augusta.nottingham.ac.uk.220521"
"compute025.int.augusta.nottingham.ac.uk.245373"
"compute025.int.augusta.nottingham.ac.uk.245374"
"compute025.int.augusta.nottingham.ac.uk.245375"
"compute025.int.augusta.nottingham.ac.uk.245376"
"compute025.int.augusta.nottingham.ac.uk.245377"
"compute025.int.augusta.nottingham.ac.uk.245378"
"compute025.int.augusta.nottingham.ac.uk.245379"
"compute025.int.augusta.nottingham.ac.uk.245380"
"compute025.int.augusta.nottingham.ac.uk.245381"
"compute025.int.augusta.nottingham.ac.uk.245382"
"compute025.int.augusta.nottingham.ac.uk.245383"
"compute025.int.augusta.nottingham.ac.uk.245384"
"compute061.int.augusta.nottingham.ac.uk.237639"
"compute061.int.augusta.nottingham.ac.uk.237640"
"compute061.int.augusta.nottingham.ac.uk.237641"
"compute061.int.augusta.nottingham.ac.uk.237642"
"compute061.int.augusta.nottingham.ac.uk.237643"
"compute061.int.augusta.nottingham.ac.uk.237644"
"compute061.int.augusta.nottingham.ac.uk.237645"
"compute061.int.augusta.nottingham.ac.uk.237646"
"compute061.int.augusta.nottingham.ac.uk.237647"
"compute061.int.augusta.nottingham.ac.uk.237648"
"compute061.int.augusta.nottingham.ac.uk.237649"
"compute061.int.augusta.nottingham.ac.uk.237650"
"compute062.int.augusta.nottingham.ac.uk.13129"
"compute062.int.augusta.nottingham.ac.uk.13130"
"compute062.int.augusta.nottingham.ac.uk.13131"
"compute062.int.augusta.nottingham.ac.uk.13132"
"compute062.int.augusta.nottingham.ac.uk.13133"
"compute062.int.augusta.nottingham.ac.uk.13134"
"compute062.int.augusta.nottingham.ac.uk.13135"
"compute062.int.augusta.nottingham.ac.uk.13136"
"compute062.int.augusta.nottingham.ac.uk.13137"
"compute062.int.augusta.nottingham.ac.uk.13138"
"compute062.int.augusta.nottingham.ac.uk.13139"
"compute062.int.augusta.nottingham.ac.uk.13140"
"compute063.int.augusta.nottingham.ac.uk.230588"
"compute063.int.augusta.nottingham.ac.uk.230589"
"compute063.int.augusta.nottingham.ac.uk.230590"
"compute063.int.augusta.nottingham.ac.uk.230591"
"compute063.int.augusta.nottingham.ac.uk.230592"
"compute063.int.augusta.nottingham.ac.uk.230593"
"compute063.int.augusta.nottingham.ac.uk.230594"
"compute063.int.augusta.nottingham.ac.uk.230595"
"compute063.int.augusta.nottingham.ac.uk.230596"
"compute063.int.augusta.nottingham.ac.uk.230597"
"compute063.int.augusta.nottingham.ac.uk.230598"
"compute063.int.augusta.nottingham.ac.uk.230599"
"compute064.int.augusta.nottingham.ac.uk.204790"
"compute064.int.augusta.nottingham.ac.uk.204791"
"compute064.int.augusta.nottingham.ac.uk.204792"
"compute064.int.augusta.nottingham.ac.uk.204793"
"compute064.int.augusta.nottingham.ac.uk.204794"
"compute064.int.augusta.nottingham.ac.uk.204795"
"compute064.int.augusta.nottingham.ac.uk.204796"
"compute064.int.augusta.nottingham.ac.uk.204797"
"compute064.int.augusta.nottingham.ac.uk.204798"
"compute064.int.augusta.nottingham.ac.uk.204799"
"compute064.int.augusta.nottingham.ac.uk.204800"
"compute064.int.augusta.nottingham.ac.uk.204801"
"compute065.int.augusta.nottingham.ac.uk.49149"
"compute065.int.augusta.nottingham.ac.uk.49150"
"compute065.int.augusta.nottingham.ac.uk.49151"
"compute065.int.augusta.nottingham.ac.uk.49152"
"compute065.int.augusta.nottingham.ac.uk.49153"
"compute065.int.augusta.nottingham.ac.uk.49154"
"compute065.int.augusta.nottingham.ac.uk.49155"
"compute065.int.augusta.nottingham.ac.uk.49156"
"compute065.int.augusta.nottingham.ac.uk.49157"
"compute065.int.augusta.nottingham.ac.uk.49158"
"compute065.int.augusta.nottingham.ac.uk.49159"
"compute065.int.augusta.nottingham.ac.uk.49160"
"compute066.int.augusta.nottingham.ac.uk.249353"
"compute066.int.augusta.nottingham.ac.uk.249354"
"compute066.int.augusta.nottingham.ac.uk.249355"
"compute066.int.augusta.nottingham.ac.uk.249356"
"compute066.int.augusta.nottingham.ac.uk.249357"
"compute066.int.augusta.nottingham.ac.uk.249358"
"compute066.int.augusta.nottingham.ac.uk.249359"
"compute066.int.augusta.nottingham.ac.uk.249360"
"compute066.int.augusta.nottingham.ac.uk.249361"
"compute066.int.augusta.nottingham.ac.uk.249362"
"compute066.int.augusta.nottingham.ac.uk.249363"
"compute066.int.augusta.nottingham.ac.uk.249364"
)

Pstream initialized with:
    floatTransfer      : 0
    nProcsSimpleSum    : 0
    commsType          : nonBlocking
    polling iterations : 0
sigFpe : Enabling floating point exception trapping (FOAM_SIGFPE).
fileModificationChecking : Monitoring run-time modified files using timeStampMaster (fileModificationSkew 10)
allowSystemOperations : Allowing user-supplied system call operations

// * * * * * * * * * * * * * * * * * * * * * * * * * * * * * * * * * * * * * //
Create time

Create mesh for time = 0


SIMPLE: Convergence criteria found
        p: tolerance 1e-10
        c: tolerance 1e-10


Reading g

Reading field p

Reading transportProperties

Reading field K

Reading/calculating face flux field phi

No finite volume options present

Starting time loop

Time = 100

DICPBiCGStab:  Solving for p, Initial residual = 1, Final residual = 9.6644e-07, No Iterations 501
Mean velocity  = (0.000273321 1.48838e-07 1.13263e-06)

ExecutionTime = 6.39 s  ClockTime = 6 s

Time = 200

DICPBiCGStab:  Solving for p, Initial residual = 5.12367e-07, Final residual = 4.40975e-13, No Iterations 403
Mean velocity  = (0.000273324 1.5024e-07 1.13147e-06)

ExecutionTime = 10.09 s  ClockTime = 10 s

Time = 300

DICPBiCGStab:  Solving for p, Initial residual = 5.0836e-13, Final residual = 4.52373e-16, No Iterations 247
Mean velocity  = (0.000273324 1.5024e-07 1.13147e-06)

ExecutionTime = 12.45 s  ClockTime = 12 s


SIMPLE solution converged in 300 iterations

End

Finalising parallel run
/*---------------------------------------------------------------------------*\
  =========                 |
  \\      /  F ield         | OpenFOAM: The Open Source CFD Toolbox
   \\    /   O peration     | Website:  https://openfoam.org
    \\  /    A nd           | Version:  8
     \\/     M anipulation  |
\*---------------------------------------------------------------------------*/
Build  : 8
Exec   : macroScalarTransport -parallel
Date   : Nov 05 2022
Time   : 15:56:55
Host   : "compute024.int.augusta.nottingham.ac.uk"
PID    : 221473
I/O    : uncollated
Case   : /gpfs01/home/pmxep5/PGSFlowTransport/tutorials/RESULTS/Herten/varPeclet/lowPeclet
nProcs : 96
Slaves : 
95
(
"compute024.int.augusta.nottingham.ac.uk.221474"
"compute024.int.augusta.nottingham.ac.uk.221475"
"compute024.int.augusta.nottingham.ac.uk.221476"
"compute024.int.augusta.nottingham.ac.uk.221477"
"compute024.int.augusta.nottingham.ac.uk.221478"
"compute024.int.augusta.nottingham.ac.uk.221479"
"compute024.int.augusta.nottingham.ac.uk.221480"
"compute024.int.augusta.nottingham.ac.uk.221481"
"compute024.int.augusta.nottingham.ac.uk.221482"
"compute024.int.augusta.nottingham.ac.uk.221483"
"compute024.int.augusta.nottingham.ac.uk.221484"
"compute025.int.augusta.nottingham.ac.uk.245574"
"compute025.int.augusta.nottingham.ac.uk.245575"
"compute025.int.augusta.nottingham.ac.uk.245576"
"compute025.int.augusta.nottingham.ac.uk.245577"
"compute025.int.augusta.nottingham.ac.uk.245578"
"compute025.int.augusta.nottingham.ac.uk.245579"
"compute025.int.augusta.nottingham.ac.uk.245580"
"compute025.int.augusta.nottingham.ac.uk.245581"
"compute025.int.augusta.nottingham.ac.uk.245582"
"compute025.int.augusta.nottingham.ac.uk.245583"
"compute025.int.augusta.nottingham.ac.uk.245584"
"compute025.int.augusta.nottingham.ac.uk.245585"
"compute061.int.augusta.nottingham.ac.uk.237991"
"compute061.int.augusta.nottingham.ac.uk.237992"
"compute061.int.augusta.nottingham.ac.uk.237993"
"compute061.int.augusta.nottingham.ac.uk.237994"
"compute061.int.augusta.nottingham.ac.uk.237995"
"compute061.int.augusta.nottingham.ac.uk.237996"
"compute061.int.augusta.nottingham.ac.uk.237997"
"compute061.int.augusta.nottingham.ac.uk.237998"
"compute061.int.augusta.nottingham.ac.uk.237999"
"compute061.int.augusta.nottingham.ac.uk.238000"
"compute061.int.augusta.nottingham.ac.uk.238001"
"compute061.int.augusta.nottingham.ac.uk.238002"
"compute062.int.augusta.nottingham.ac.uk.13445"
"compute062.int.augusta.nottingham.ac.uk.13446"
"compute062.int.augusta.nottingham.ac.uk.13447"
"compute062.int.augusta.nottingham.ac.uk.13448"
"compute062.int.augusta.nottingham.ac.uk.13449"
"compute062.int.augusta.nottingham.ac.uk.13450"
"compute062.int.augusta.nottingham.ac.uk.13451"
"compute062.int.augusta.nottingham.ac.uk.13452"
"compute062.int.augusta.nottingham.ac.uk.13453"
"compute062.int.augusta.nottingham.ac.uk.13454"
"compute062.int.augusta.nottingham.ac.uk.13455"
"compute062.int.augusta.nottingham.ac.uk.13456"
"compute063.int.augusta.nottingham.ac.uk.230953"
"compute063.int.augusta.nottingham.ac.uk.230955"
"compute063.int.augusta.nottingham.ac.uk.230964"
"compute063.int.augusta.nottingham.ac.uk.230965"
"compute063.int.augusta.nottingham.ac.uk.230966"
"compute063.int.augusta.nottingham.ac.uk.230967"
"compute063.int.augusta.nottingham.ac.uk.230968"
"compute063.int.augusta.nottingham.ac.uk.230969"
"compute063.int.augusta.nottingham.ac.uk.230970"
"compute063.int.augusta.nottingham.ac.uk.230971"
"compute063.int.augusta.nottingham.ac.uk.230972"
"compute063.int.augusta.nottingham.ac.uk.230973"
"compute064.int.augusta.nottingham.ac.uk.205076"
"compute064.int.augusta.nottingham.ac.uk.205077"
"compute064.int.augusta.nottingham.ac.uk.205078"
"compute064.int.augusta.nottingham.ac.uk.205079"
"compute064.int.augusta.nottingham.ac.uk.205080"
"compute064.int.augusta.nottingham.ac.uk.205081"
"compute064.int.augusta.nottingham.ac.uk.205082"
"compute064.int.augusta.nottingham.ac.uk.205083"
"compute064.int.augusta.nottingham.ac.uk.205084"
"compute064.int.augusta.nottingham.ac.uk.205085"
"compute064.int.augusta.nottingham.ac.uk.205086"
"compute064.int.augusta.nottingham.ac.uk.205087"
"compute065.int.augusta.nottingham.ac.uk.49501"
"compute065.int.augusta.nottingham.ac.uk.49502"
"compute065.int.augusta.nottingham.ac.uk.49503"
"compute065.int.augusta.nottingham.ac.uk.49504"
"compute065.int.augusta.nottingham.ac.uk.49505"
"compute065.int.augusta.nottingham.ac.uk.49506"
"compute065.int.augusta.nottingham.ac.uk.49507"
"compute065.int.augusta.nottingham.ac.uk.49508"
"compute065.int.augusta.nottingham.ac.uk.49509"
"compute065.int.augusta.nottingham.ac.uk.49510"
"compute065.int.augusta.nottingham.ac.uk.49511"
"compute065.int.augusta.nottingham.ac.uk.49512"
"compute066.int.augusta.nottingham.ac.uk.249703"
"compute066.int.augusta.nottingham.ac.uk.249710"
"compute066.int.augusta.nottingham.ac.uk.249712"
"compute066.int.augusta.nottingham.ac.uk.249715"
"compute066.int.augusta.nottingham.ac.uk.249718"
"compute066.int.augusta.nottingham.ac.uk.249719"
"compute066.int.augusta.nottingham.ac.uk.249720"
"compute066.int.augusta.nottingham.ac.uk.249721"
"compute066.int.augusta.nottingham.ac.uk.249722"
"compute066.int.augusta.nottingham.ac.uk.249723"
"compute066.int.augusta.nottingham.ac.uk.249724"
"compute066.int.augusta.nottingham.ac.uk.249725"
)

Pstream initialized with:
    floatTransfer      : 0
    nProcsSimpleSum    : 0
    commsType          : nonBlocking
    polling iterations : 0
sigFpe : Enabling floating point exception trapping (FOAM_SIGFPE).
fileModificationChecking : Monitoring run-time modified files using timeStampMaster (fileModificationSkew 10)
allowSystemOperations : Allowing user-supplied system call operations

// * * * * * * * * * * * * * * * * * * * * * * * * * * * * * * * * * * * * * //
Create time

Create mesh for time = 0


SIMPLE: Convergence criteria found
        p: tolerance 1e-10
        c: tolerance 1e-10

Reading field c

Reading field U

Reading transportProperties

Reading diffusivity Dm

Reading outlet name

Reading porosity phi

Reading mechanical disp coeff alpha

Reading controlDict

Reading/calculating face flux field q

No finite volume options present

Calculating scalar transport

Courant Number mean: 0.583838 max: 8.06066
Mean vel = (0.000273324 1.5024e-07 1.13147e-06)

Adaptive time = 9.92457
DILUPBiCGStab:  Solving for c, Initial residual = 1, Final residual = 2.90184e-11, No Iterations 3
Total mass = 0.638789
Flux out = 0

Adaptive time = 19.8491
DILUPBiCGStab:  Solving for c, Initial residual = 0.201613, Final residual = 2.66313e-11, No Iterations 2
Total mass = 1.27661
Flux out = 1.67615e-193

Adaptive time = 29.7737
DILUPBiCGStab:  Solving for c, Initial residual = 0.112072, Final residual = 1.52345e-11, No Iterations 2
Total mass = 1.91338
Flux out = 2.61151e-191

Adaptive time = 39.6983
DILUPBiCGStab:  Solving for c, Initial residual = 0.0776313, Final residual = 1.10072e-11, No Iterations 2
Total mass = 2.54927
Flux out = 1.809e-189

Adaptive time = 49.6229
DILUPBiCGStab:  Solving for c, Initial residual = 0.0594079, Final residual = 8.8261e-12, No Iterations 2
Total mass = 3.18447
Flux out = 8.12341e-188

Adaptive time = 59.5474
DILUPBiCGStab:  Solving for c, Initial residual = 0.0481342, Final residual = 7.57237e-12, No Iterations 2
Total mass = 3.81916
Flux out = 2.71844e-186

Adaptive time = 69.472
DILUPBiCGStab:  Solving for c, Initial residual = 0.0404723, Final residual = 6.66602e-12, No Iterations 2
Total mass = 4.45348
Flux out = 7.28161e-185

Adaptive time = 79.3966
DILUPBiCGStab:  Solving for c, Initial residual = 0.0349273, Final residual = 5.87704e-12, No Iterations 2
Total mass = 5.08752
Flux out = 1.63042e-183

Adaptive time = 89.3212
DILUPBiCGStab:  Solving for c, Initial residual = 0.0307262, Final residual = 5.08786e-12, No Iterations 2
Total mass = 5.72135
Flux out = 3.14213e-182

Adaptive time = 99.2457
DILUPBiCGStab:  Solving for c, Initial residual = 0.0274344, Final residual = 4.23446e-12, No Iterations 2
Total mass = 6.35502
Flux out = 5.32301e-181

Adaptive time = 109.17
DILUPBiCGStab:  Solving for c, Initial residual = 0.0247843, Final residual = 3.38368e-12, No Iterations 2
Total mass = 6.98858
Flux out = 8.05451e-180

Adaptive time = 119.095
DILUPBiCGStab:  Solving for c, Initial residual = 0.0226054, Final residual = 2.64857e-12, No Iterations 2
Total mass = 7.62204
Flux out = 1.10237e-178

Adaptive time = 129.019
DILUPBiCGStab:  Solving for c, Initial residual = 0.0207815, Final residual = 2.07933e-12, No Iterations 2
Total mass = 8.25542
Flux out = 1.37854e-177

Adaptive time = 138.944
DILUPBiCGStab:  Solving for c, Initial residual = 0.0192327, Final residual = 1.74294e-12, No Iterations 2
Total mass = 8.88875
Flux out = 1.5884e-176

Adaptive time = 148.869
DILUPBiCGStab:  Solving for c, Initial residual = 0.0179009, Final residual = 1.69981e-12, No Iterations 2
Total mass = 9.52202
Flux out = 1.69823e-175

Adaptive time = 158.793
DILUPBiCGStab:  Solving for c, Initial residual = 0.0167437, Final residual = 1.68094e-12, No Iterations 2
Total mass = 10.1553
Flux out = 1.69486e-174

Adaptive time = 168.718
DILUPBiCGStab:  Solving for c, Initial residual = 0.0157286, Final residual = 1.63884e-12, No Iterations 2
Total mass = 10.7885
Flux out = 1.58716e-173

Adaptive time = 178.642
DILUPBiCGStab:  Solving for c, Initial residual = 0.0148309, Final residual = 1.57388e-12, No Iterations 2
Total mass = 11.4216
Flux out = 1.40093e-172

Adaptive time = 188.567
DILUPBiCGStab:  Solving for c, Initial residual = 0.0140315, Final residual = 1.49374e-12, No Iterations 2
Total mass = 12.0548
Flux out = 1.17019e-171

Adaptive time = 198.491
DILUPBiCGStab:  Solving for c, Initial residual = 0.0133148, Final residual = 1.40245e-12, No Iterations 2
Total mass = 12.6879
Flux out = 9.28273e-171

Adaptive time = 208.416
DILUPBiCGStab:  Solving for c, Initial residual = 0.0126689, Final residual = 1.30592e-12, No Iterations 2
Total mass = 13.3211
Flux out = 7.01544e-170

Adaptive time = 218.341
DILUPBiCGStab:  Solving for c, Initial residual = 0.0120836, Final residual = 1.20897e-12, No Iterations 2
Total mass = 13.9542
Flux out = 5.0657e-169

Adaptive time = 228.265
DILUPBiCGStab:  Solving for c, Initial residual = 0.0115508, Final residual = 1.11575e-12, No Iterations 2
Total mass = 14.5872
Flux out = 3.50399e-168

Adaptive time = 238.19
DILUPBiCGStab:  Solving for c, Initial residual = 0.0110638, Final residual = 1.02925e-12, No Iterations 2
Total mass = 15.2203
Flux out = 2.32735e-167

Adaptive time = 248.114
DILUPBiCGStab:  Solving for c, Initial residual = 0.0106168, Final residual = 9.52886e-13, No Iterations 2
Total mass = 15.8534
Flux out = 1.48762e-166

Adaptive time = 258.039
DILUPBiCGStab:  Solving for c, Initial residual = 0.010205, Final residual = 8.88073e-13, No Iterations 2
Total mass = 16.4865
Flux out = 9.16943e-166

Adaptive time = 267.963
DILUPBiCGStab:  Solving for c, Initial residual = 0.00982472, Final residual = 8.39677e-13, No Iterations 2
Total mass = 17.1195
Flux out = 5.46057e-165

Adaptive time = 277.888
DILUPBiCGStab:  Solving for c, Initial residual = 0.0094722, Final residual = 8.21522e-13, No Iterations 2
Total mass = 17.7526
Flux out = 3.14743e-164

Adaptive time = 287.813
DILUPBiCGStab:  Solving for c, Initial residual = 0.00914455, Final residual = 8.59437e-13, No Iterations 2
Total mass = 18.3856
Flux out = 1.75886e-163

Adaptive time = 297.737
DILUPBiCGStab:  Solving for c, Initial residual = 0.00883927, Final residual = 9.23483e-13, No Iterations 2
Total mass = 19.0186
Flux out = 9.54478e-163

Adaptive time = 307.662
DILUPBiCGStab:  Solving for c, Initial residual = 0.00855406, Final residual = 1.00665e-12, No Iterations 2
Total mass = 19.6517
Flux out = 5.03765e-162

Adaptive time = 317.586
DILUPBiCGStab:  Solving for c, Initial residual = 0.00828714, Final residual = 1.10685e-12, No Iterations 2
Total mass = 20.2847
Flux out = 2.58979e-161

Adaptive time = 327.511
DILUPBiCGStab:  Solving for c, Initial residual = 0.00803675, Final residual = 1.21899e-12, No Iterations 2
Total mass = 20.9177
Flux out = 1.29869e-160

Adaptive time = 337.435
DILUPBiCGStab:  Solving for c, Initial residual = 0.00780133, Final residual = 1.33654e-12, No Iterations 2
Total mass = 21.5507
Flux out = 6.36156e-160

Adaptive time = 347.36
DILUPBiCGStab:  Solving for c, Initial residual = 0.00757968, Final residual = 1.45494e-12, No Iterations 2
Total mass = 22.1837
Flux out = 3.0482e-159

Adaptive time = 357.285
DILUPBiCGStab:  Solving for c, Initial residual = 0.00737055, Final residual = 1.5718e-12, No Iterations 2
Total mass = 22.8168
Flux out = 1.43068e-158

Adaptive time = 367.209
DILUPBiCGStab:  Solving for c, Initial residual = 0.00717287, Final residual = 1.68196e-12, No Iterations 2
Total mass = 23.4498
Flux out = 6.58641e-158

Adaptive time = 377.134
DILUPBiCGStab:  Solving for c, Initial residual = 0.00698586, Final residual = 1.78413e-12, No Iterations 2
Total mass = 24.0828
Flux out = 2.9782e-157

Adaptive time = 387.058
DILUPBiCGStab:  Solving for c, Initial residual = 0.00680859, Final residual = 1.87706e-12, No Iterations 2
Total mass = 24.7158
Flux out = 1.32447e-156

Adaptive time = 396.983
DILUPBiCGStab:  Solving for c, Initial residual = 0.0066403, Final residual = 1.96099e-12, No Iterations 2
Total mass = 25.3488
Flux out = 5.80087e-156

Adaptive time = 406.908
DILUPBiCGStab:  Solving for c, Initial residual = 0.00648042, Final residual = 2.03646e-12, No Iterations 2
Total mass = 25.9818
Flux out = 2.50541e-155

Adaptive time = 416.832
DILUPBiCGStab:  Solving for c, Initial residual = 0.00632824, Final residual = 2.10624e-12, No Iterations 2
Total mass = 26.6148
Flux out = 1.06847e-154

Adaptive time = 426.757
DILUPBiCGStab:  Solving for c, Initial residual = 0.00618322, Final residual = 2.17194e-12, No Iterations 2
Total mass = 27.2478
Flux out = 4.50498e-154

Adaptive time = 436.681
DILUPBiCGStab:  Solving for c, Initial residual = 0.00604497, Final residual = 2.23658e-12, No Iterations 2
Total mass = 27.8807
Flux out = 1.88013e-153

Adaptive time = 446.606
DILUPBiCGStab:  Solving for c, Initial residual = 0.00591293, Final residual = 2.30323e-12, No Iterations 2
Total mass = 28.5137
Flux out = 7.7758e-153

Adaptive time = 456.53
DILUPBiCGStab:  Solving for c, Initial residual = 0.00578669, Final residual = 2.376e-12, No Iterations 2
Total mass = 29.1467
Flux out = 3.1902e-152

Adaptive time = 466.455
DILUPBiCGStab:  Solving for c, Initial residual = 0.00566594, Final residual = 2.45974e-12, No Iterations 2
Total mass = 29.7797
Flux out = 1.29964e-151

Adaptive time = 476.38
DILUPBiCGStab:  Solving for c, Initial residual = 0.00555026, Final residual = 2.55993e-12, No Iterations 2
Total mass = 30.4127
Flux out = 5.26166e-151

Adaptive time = 486.304
DILUPBiCGStab:  Solving for c, Initial residual = 0.00543934, Final residual = 2.68077e-12, No Iterations 2
Total mass = 31.0457
Flux out = 2.11853e-150

Adaptive time = 496.229
DILUPBiCGStab:  Solving for c, Initial residual = 0.00533297, Final residual = 2.82792e-12, No Iterations 2
Total mass = 31.6787
Flux out = 8.48836e-150

Adaptive time = 506.153
DILUPBiCGStab:  Solving for c, Initial residual = 0.00523081, Final residual = 3.00624e-12, No Iterations 2
Total mass = 32.3117
Flux out = 3.38615e-149

Adaptive time = 516.078
DILUPBiCGStab:  Solving for c, Initial residual = 0.00513259, Final residual = 3.21896e-12, No Iterations 2
Total mass = 32.9446
Flux out = 1.34541e-148

Adaptive time = 526.002
DILUPBiCGStab:  Solving for c, Initial residual = 0.00503818, Final residual = 3.46544e-12, No Iterations 2
Total mass = 33.5776
Flux out = 5.326e-148

Adaptive time = 535.927
DILUPBiCGStab:  Solving for c, Initial residual = 0.00494729, Final residual = 3.73841e-12, No Iterations 2
Total mass = 34.2106
Flux out = 2.10114e-147

Adaptive time = 545.852
DILUPBiCGStab:  Solving for c, Initial residual = 0.00485973, Final residual = 4.02164e-12, No Iterations 2
Total mass = 34.8436
Flux out = 8.26227e-147

Adaptive time = 555.776
DILUPBiCGStab:  Solving for c, Initial residual = 0.00477536, Final residual = 4.28914e-12, No Iterations 2
Total mass = 35.4766
Flux out = 3.23892e-146

Adaptive time = 565.701
DILUPBiCGStab:  Solving for c, Initial residual = 0.00469397, Final residual = 4.50979e-12, No Iterations 2
Total mass = 36.1095
Flux out = 1.26595e-145

Adaptive time = 575.625
DILUPBiCGStab:  Solving for c, Initial residual = 0.0046154, Final residual = 4.66255e-12, No Iterations 2
Total mass = 36.7425
Flux out = 4.93404e-145

Adaptive time = 585.55
DILUPBiCGStab:  Solving for c, Initial residual = 0.00453956, Final residual = 4.73825e-12, No Iterations 2
Total mass = 37.3755
Flux out = 1.91784e-144

Adaptive time = 595.474
DILUPBiCGStab:  Solving for c, Initial residual = 0.00446626, Final residual = 4.75612e-12, No Iterations 2
Total mass = 38.0085
Flux out = 7.43529e-144

Adaptive time = 605.399
DILUPBiCGStab:  Solving for c, Initial residual = 0.00439537, Final residual = 4.76184e-12, No Iterations 2
Total mass = 38.6414
Flux out = 2.87553e-143

Adaptive time = 615.324
DILUPBiCGStab:  Solving for c, Initial residual = 0.00432682, Final residual = 4.90834e-12, No Iterations 2
Total mass = 39.2744
Flux out = 1.1095e-142

Adaptive time = 625.248
DILUPBiCGStab:  Solving for c, Initial residual = 0.00426048, Final residual = 5.11803e-12, No Iterations 2
Total mass = 39.9074
Flux out = 4.27156e-142

Adaptive time = 635.173
DILUPBiCGStab:  Solving for c, Initial residual = 0.0041962, Final residual = 5.34905e-12, No Iterations 2
Total mass = 40.5404
Flux out = 1.64116e-141

Adaptive time = 645.097
DILUPBiCGStab:  Solving for c, Initial residual = 0.00413394, Final residual = 5.58341e-12, No Iterations 2
Total mass = 41.1733
Flux out = 6.29323e-141

Adaptive time = 655.022
DILUPBiCGStab:  Solving for c, Initial residual = 0.0040736, Final residual = 5.80325e-12, No Iterations 2
Total mass = 41.8063
Flux out = 2.40885e-140

Adaptive time = 664.946
DILUPBiCGStab:  Solving for c, Initial residual = 0.00401505, Final residual = 5.9701e-12, No Iterations 2
Total mass = 42.4393
Flux out = 9.20468e-140

Adaptive time = 674.871
DILUPBiCGStab:  Solving for c, Initial residual = 0.00395825, Final residual = 5.98098e-12, No Iterations 2
Total mass = 43.0722
Flux out = 3.51166e-139

Adaptive time = 684.796
DILUPBiCGStab:  Solving for c, Initial residual = 0.00390314, Final residual = 5.80042e-12, No Iterations 2
Total mass = 43.7052
Flux out = 1.33771e-138

Adaptive time = 694.72
DILUPBiCGStab:  Solving for c, Initial residual = 0.00384959, Final residual = 8.04655e-12, No Iterations 2
Total mass = 44.3382
Flux out = 5.0885e-138

Adaptive time = 704.645
DILUPBiCGStab:  Solving for c, Initial residual = 0.00379756, Final residual = 1.39807e-11, No Iterations 2
Total mass = 44.9712
Flux out = 1.93298e-137

Adaptive time = 714.569
DILUPBiCGStab:  Solving for c, Initial residual = 0.00374701, Final residual = 2.40689e-11, No Iterations 2
Total mass = 45.6041
Flux out = 7.33337e-137

Adaptive time = 724.494
DILUPBiCGStab:  Solving for c, Initial residual = 0.00369784, Final residual = 3.88633e-11, No Iterations 2
Total mass = 46.2371
Flux out = 2.77868e-136

Adaptive time = 734.418
DILUPBiCGStab:  Solving for c, Initial residual = 0.00365002, Final residual = 6.00756e-11, No Iterations 2
Total mass = 46.8701
Flux out = 1.05161e-135

Adaptive time = 744.343
DILUPBiCGStab:  Solving for c, Initial residual = 0.0036035, Final residual = 9.07781e-11, No Iterations 2
Total mass = 47.503
Flux out = 3.97524e-135

Adaptive time = 754.268
DILUPBiCGStab:  Solving for c, Initial residual = 0.00355821, Final residual = 4.14113e-13, No Iterations 3
Total mass = 48.136
Flux out = 1.50101e-134

Adaptive time = 764.192
DILUPBiCGStab:  Solving for c, Initial residual = 0.00351408, Final residual = 4.05133e-13, No Iterations 3
Total mass = 48.769
Flux out = 5.66137e-134

Adaptive time = 774.117
DILUPBiCGStab:  Solving for c, Initial residual = 0.00347112, Final residual = 3.94713e-13, No Iterations 3
Total mass = 49.4019
Flux out = 2.13299e-133

Adaptive time = 784.041
DILUPBiCGStab:  Solving for c, Initial residual = 0.00342925, Final residual = 3.82966e-13, No Iterations 3
Total mass = 50.0349
Flux out = 8.02765e-133

Adaptive time = 793.966
DILUPBiCGStab:  Solving for c, Initial residual = 0.00338843, Final residual = 3.62452e-13, No Iterations 3
Total mass = 50.6679
Flux out = 3.018e-132

Adaptive time = 803.89
DILUPBiCGStab:  Solving for c, Initial residual = 0.00334864, Final residual = 3.22677e-13, No Iterations 3
Total mass = 51.3008
Flux out = 1.13338e-131

Adaptive time = 813.815
DILUPBiCGStab:  Solving for c, Initial residual = 0.00330982, Final residual = 2.57356e-13, No Iterations 3
Total mass = 51.9338
Flux out = 4.2516e-131

Adaptive time = 823.74
DILUPBiCGStab:  Solving for c, Initial residual = 0.00327194, Final residual = 1.61136e-13, No Iterations 3
Total mass = 52.5668
Flux out = 1.59305e-130

Adaptive time = 833.664
DILUPBiCGStab:  Solving for c, Initial residual = 0.00323497, Final residual = 1.08784e-13, No Iterations 3
Total mass = 53.1997
Flux out = 5.96192e-130

Adaptive time = 843.589
DILUPBiCGStab:  Solving for c, Initial residual = 0.00319889, Final residual = 1.93652e-13, No Iterations 3
Total mass = 53.8327
Flux out = 2.22841e-129

Adaptive time = 853.513
DILUPBiCGStab:  Solving for c, Initial residual = 0.00316365, Final residual = 2.83041e-13, No Iterations 3
Total mass = 54.4657
Flux out = 8.31809e-129

Adaptive time = 863.438
DILUPBiCGStab:  Solving for c, Initial residual = 0.00312922, Final residual = 3.503e-13, No Iterations 3
Total mass = 55.0986
Flux out = 3.10048e-128

Adaptive time = 873.362
DILUPBiCGStab:  Solving for c, Initial residual = 0.00309559, Final residual = 3.92491e-13, No Iterations 3
Total mass = 55.7316
Flux out = 1.15388e-127

Adaptive time = 883.287
DILUPBiCGStab:  Solving for c, Initial residual = 0.00306272, Final residual = 4.13091e-13, No Iterations 3
Total mass = 56.3646
Flux out = 4.28718e-127

Adaptive time = 893.212
DILUPBiCGStab:  Solving for c, Initial residual = 0.00303058, Final residual = 4.17282e-13, No Iterations 3
Total mass = 56.9975
Flux out = 1.59e-126

Adaptive time = 903.136
DILUPBiCGStab:  Solving for c, Initial residual = 0.00299916, Final residual = 4.11122e-13, No Iterations 3
Total mass = 57.6305
Flux out = 5.88534e-126

Adaptive time = 913.061
DILUPBiCGStab:  Solving for c, Initial residual = 0.00296843, Final residual = 3.99459e-13, No Iterations 3
Total mass = 58.2635
Flux out = 2.17384e-125

Adaptive time = 922.985
DILUPBiCGStab:  Solving for c, Initial residual = 0.00293836, Final residual = 3.85406e-13, No Iterations 3
Total mass = 58.8964
Flux out = 8.0111e-125

Adaptive time = 932.91
DILUPBiCGStab:  Solving for c, Initial residual = 0.00290894, Final residual = 3.71064e-13, No Iterations 3
Total mass = 59.5294
Flux out = 2.94502e-124

Adaptive time = 942.834
DILUPBiCGStab:  Solving for c, Initial residual = 0.00288015, Final residual = 3.57742e-13, No Iterations 3
Total mass = 60.1623
Flux out = 1.07978e-123

Adaptive time = 952.759
DILUPBiCGStab:  Solving for c, Initial residual = 0.00285196, Final residual = 3.46067e-13, No Iterations 3
Total mass = 60.7953
Flux out = 3.94782e-123

Adaptive time = 962.684
DILUPBiCGStab:  Solving for c, Initial residual = 0.00282435, Final residual = 3.36318e-13, No Iterations 3
Total mass = 61.4283
Flux out = 1.43903e-122

Adaptive time = 972.608
DILUPBiCGStab:  Solving for c, Initial residual = 0.00279732, Final residual = 3.28591e-13, No Iterations 3
Total mass = 62.0612
Flux out = 5.22876e-122

Adaptive time = 982.533
DILUPBiCGStab:  Solving for c, Initial residual = 0.00277084, Final residual = 3.22809e-13, No Iterations 3
Total mass = 62.6942
Flux out = 1.89348e-121

Adaptive time = 992.457
DILUPBiCGStab:  Solving for c, Initial residual = 0.00274489, Final residual = 3.18902e-13, No Iterations 3
Total mass = 63.3272
Flux out = 6.83252e-121

Adaptive time = 1002.38
DILUPBiCGStab:  Solving for c, Initial residual = 0.00271946, Final residual = 3.16796e-13, No Iterations 3
Total mass = 63.9601
Flux out = 2.45632e-120

Adaptive time = 1012.31
DILUPBiCGStab:  Solving for c, Initial residual = 0.00269454, Final residual = 3.16405e-13, No Iterations 3
Total mass = 64.5931
Flux out = 8.7963e-120

Adaptive time = 1022.23
DILUPBiCGStab:  Solving for c, Initial residual = 0.00267009, Final residual = 3.17622e-13, No Iterations 3
Total mass = 65.226
Flux out = 3.13732e-119

Adaptive time = 1032.16
DILUPBiCGStab:  Solving for c, Initial residual = 0.00264612, Final residual = 3.20306e-13, No Iterations 3
Total mass = 65.859
Flux out = 1.11429e-118

Adaptive time = 1042.08
DILUPBiCGStab:  Solving for c, Initial residual = 0.00262262, Final residual = 3.24293e-13, No Iterations 3
Total mass = 66.492
Flux out = 3.94051e-118

Adaptive time = 1052
DILUPBiCGStab:  Solving for c, Initial residual = 0.00259956, Final residual = 3.2924e-13, No Iterations 3
Total mass = 67.1249
Flux out = 1.38729e-117

Adaptive time = 1061.93
DILUPBiCGStab:  Solving for c, Initial residual = 0.00257693, Final residual = 3.3469e-13, No Iterations 3
Total mass = 67.7579
Flux out = 4.86172e-117

Adaptive time = 1071.85
DILUPBiCGStab:  Solving for c, Initial residual = 0.00255474, Final residual = 3.40134e-13, No Iterations 3
Total mass = 68.3909
Flux out = 1.69578e-116

Adaptive time = 1081.78
DILUPBiCGStab:  Solving for c, Initial residual = 0.00253295, Final residual = 3.44936e-13, No Iterations 3
Total mass = 69.0238
Flux out = 5.88658e-116

Adaptive time = 1091.7
DILUPBiCGStab:  Solving for c, Initial residual = 0.00251156, Final residual = 3.48461e-13, No Iterations 3
Total mass = 69.6568
Flux out = 2.03342e-115

Adaptive time = 1101.63
DILUPBiCGStab:  Solving for c, Initial residual = 0.00249056, Final residual = 3.50135e-13, No Iterations 3
Total mass = 70.2897
Flux out = 6.98913e-115

Adaptive time = 1111.55
DILUPBiCGStab:  Solving for c, Initial residual = 0.00246994, Final residual = 3.49588e-13, No Iterations 3
Total mass = 70.9227
Flux out = 2.39011e-114

Adaptive time = 1121.48
DILUPBiCGStab:  Solving for c, Initial residual = 0.00244968, Final residual = 3.46723e-13, No Iterations 3
Total mass = 71.5557
Flux out = 8.13174e-114

Adaptive time = 1131.4
DILUPBiCGStab:  Solving for c, Initial residual = 0.00242979, Final residual = 3.41681e-13, No Iterations 3
Total mass = 72.1886
Flux out = 2.75226e-113

Adaptive time = 1141.33
DILUPBiCGStab:  Solving for c, Initial residual = 0.00241025, Final residual = 3.3488e-13, No Iterations 3
Total mass = 72.8216
Flux out = 9.26646e-113

Adaptive time = 1151.25
DILUPBiCGStab:  Solving for c, Initial residual = 0.00239105, Final residual = 3.26945e-13, No Iterations 3
Total mass = 73.4545
Flux out = 3.10338e-112

Adaptive time = 1161.18
DILUPBiCGStab:  Solving for c, Initial residual = 0.00237217, Final residual = 3.18579e-13, No Iterations 3
Total mass = 74.0875
Flux out = 1.03379e-111

Adaptive time = 1171.1
DILUPBiCGStab:  Solving for c, Initial residual = 0.00235363, Final residual = 3.1043e-13, No Iterations 3
Total mass = 74.7205
Flux out = 3.42529e-111

Adaptive time = 1181.02
DILUPBiCGStab:  Solving for c, Initial residual = 0.00233539, Final residual = 3.03064e-13, No Iterations 3
Total mass = 75.3534
Flux out = 1.12878e-110

Adaptive time = 1190.95
DILUPBiCGStab:  Solving for c, Initial residual = 0.00231746, Final residual = 2.96883e-13, No Iterations 3
Total mass = 75.9864
Flux out = 3.69967e-110

Adaptive time = 1200.87
DILUPBiCGStab:  Solving for c, Initial residual = 0.00229984, Final residual = 2.91143e-13, No Iterations 3
Total mass = 76.6193
Flux out = 1.206e-109

Adaptive time = 1210.8
[...]
[84] 
[84] 
[84]     From function macroScalarTransport
[84]     in file macroScalarTransport.C at line 103.
[84] [48] 
[48] 
[48] --> FOAM FATAL ERROR: 
[48] Concentration under the threshold
[48] 
[48] 
[48]     From function macroScalarTransport
[48]     in file macroScalarTransport.C at line 103.
[48] 
FOAM parallel run exiting
[48] 
[16] [92] [81] [56] 
[56] 
[56] --> FOAM FATAL ERROR: 
[56] Concentration under the threshold
[56] 
[56] 
[56]     From function macroScalarTransport
[56]     in file macroScalarTransport.C at line 103.
[56] 
FOAM parallel run exiting
[56] 
[3] 
[3] 
[3] --> FOAM FATAL ERROR: 
[3] 
[16] 

FOAM parallel run exiting
[84] 

[81] 
[81] --> FOAM FATAL ERROR: 
[81] Concentration under the threshold
[81] [5] 
[5] 
[5] --> FOAM FATAL ERROR: 
[5] Concentration under the threshold
[5] 
[5] 
[5]     From function macroScalarTransport
[5]     in file macroScalarTransport.C at line 103.Concentration under the threshold
[3] 
[3] 
[3]     From function macroScalarTransport
[3]     in file macroScalarTransport.C at line 103.
[3] 
FOAM parallel run exiting
[3] 
[16] --> FOAM FATAL ERROR: 
[16] Concentration under the threshold
[16] 
[16] 
[16]     From function macroScalarTransport
[16]     in file macroScalarTransport.C at line 103
[92] 
[92] --> FOAM FATAL ERROR: 
[92] Concentration under the threshold
[92] 
[92] 
[92]     From function macroScalarTransport
[92]     in file macroScalarTransport.C
[81] 
[81]     From function macroScalarTransport
[81]     in file macroScalarTransport.C at line 103.
[81] 
FOAM parallel run exiting
[81] 
[32] 
[32] 
[32] --> FOAM FATAL ERROR: 
[32] Concentration under the threshold
[32] 
[32] 
[32]     From function macroScalarTransport
[32]     in file macroScalarTransport.C at line 103.
[32] 
FOAM parallel run exiting
[32] 

[5] 
FOAM parallel run exiting
[5] 
.
[16] 
FOAM parallel run exiting
[16] 
 at line 103.
[92] 
FOAM parallel run exiting
[92] 
[74] [22] [95] 
[22] 
[22] --> FOAM FATAL ERROR: 
[22] Concentration under the threshold
[22] 
[22] 
[22]     From function macroScalarTransport

[95] 
[95] --> FOAM FATAL ERROR: 
[95] 
[74] 
[74] [22]     in file macroScalarTransport.C at line 103.
[22] 
FOAM parallel run exiting
[22] 
Concentration under the threshold
[95] 
[95] 
[95]     From function macroScalarTransport
[95]     in file macroScalarTransport.C at line 103.--> FOAM FATAL ERROR: 
[74] Concentration under the threshold
[74] 
[74] 
[74]     From function macroScalarTransport
[74]     in file macroScalarTransport.C at line [15] 
[95] 
FOAM parallel run exiting
[95] 
103.
[74] 
FOAM parallel run exiting
[74] 
[85] 
[15] 
[85] 
[85] --> FOAM FATAL ERROR: 
[85] 
[15] --> FOAM FATAL ERROR: 
[15] Concentration under the threshold
[15] 
[15] 
[15]     From function macroScalarTransport
[15]     in file macroScalarTransport.CConcentration under the threshold
[85] 
[85] 
[85]     From function macroScalarTransport
[85]     in file macroScalarTransport.C[19] [86]  at line 103.
[15] 
FOAM parallel run exiting
[15] 
 at line 103.
[85] 
FOAM parallel run exiting
[85] 

[19] 
[19] --> FOAM FATAL ERROR: 
[19] Concentration under the threshold
[19] 
[19] 
[19]     From function macroScalarTransport
[19]     in file macroScalarTransport.C at line 103
[86] 
[86] --> FOAM FATAL ERROR: 
[86] Concentration under the threshold
[86] 
[86] 
[86]     From function macroScalarTransport
[86]     in file macroScalarTransport.C at line 103..
[19] 
FOAM parallel run exiting
[19] 

[86] 
FOAM parallel run exiting
[86] 
[73] [18] [87] 
[73] 
[73] --> FOAM FATAL ERROR: 
[18] 
[87] 
[87] --> FOAM FATAL ERROR: 
[87] Concentration under the threshold
[87] 
[87] [6] 

[18] --> FOAM FATAL ERROR: 
[18] Concentration under the threshold
[18] 
[18] 
[18]     From function macroScalarTransport
[18]     in file 
[87]     From function macroScalarTransport
[87]     in file macroScalarTransport.C at line 103.
[87] 
FOAM parallel run exiting
[87] 
[83] 
[6] 
[6] --> FOAM FATAL ERROR: 
[6] Concentration under the threshold
[6] 
[6] 
[6]     From function macroScalarTransport
[6]     in file macroScalarTransport.C at line 103.
[6] 
FOAM parallel run exiting
[6] 
macroScalarTransport.C at line 103.
[18] 
FOAM parallel run exiting
[18] 
[90] 
[90] 
[90] 
[73] Concentration under the threshold
[73] 
[73] 
[73]     From function macroScalarTransport
[73]     in file macroScalarTransport.C at line 103.
[73] 
FOAM parallel run exiting
[73] 
[14] --> FOAM FATAL ERROR: 
[90] Concentration under the threshold
[90] 
[90] 
[90]     From function macroScalarTransport
[90]     in file macroScalarTransport.C at line 103.[83] 
[83] --> FOAM FATAL ERROR: 
[83] Concentration under the threshold
[83] 
[83] 
[83]     From function macroScalarTransport
[83]     in file macroScalarTransport.C at line 103.
[83] 
[14] 
[14] --> FOAM FATAL ERROR: 
[14] Concentration under the threshold
[14] 
[14] 
[14]     From function 
[90] 
FOAM parallel run exiting
[90] 

FOAM parallel run exiting
[83] 
macroScalarTransport
[14]     in file macroScalarTransport.C at line 103.
[14] 
FOAM parallel run exiting
[14] 
[94] [49] 
[49] 
[49] --> FOAM FATAL ERROR: 
[49] Concentration under the threshold
[49] 
[49] 
[94] 
[94] --> FOAM FATAL ERROR: 
[94] Concentration under the threshold
[94] 
[94] 
[94]     From function macroScalarTransport
[94]     in file [59] 
[59] 
[59] --> FOAM FATAL ERROR: 
[59] Concentration under the threshold
[59] 
[59] 
[59]     From function macroScalarTransport
[59]     in file [68] macroScalarTransport.C at line 103.
[94] 
FOAM parallel run exiting
[94] 
[65] 
[65] 
[65] --> FOAM FATAL ERROR: 
[65] 
[49]     From function macroScalarTransport
[49]     in file macroScalarTransport.C at line 103.
[49] 
FOAM parallel run exiting
[49] 

[68] 
[68] --> FOAM FATAL ERROR: 
[68] Concentration under the threshold
[68] 
[68] 
[68]     From function macroScalarTransport
[68]     in file macroScalarTransport.C at line 103.
[68] 
FOAM parallel run exiting
Concentration under the threshold
[65] 
[65] 
[65]     From function macroScalarTransport
[65]     in file macroScalarTransport.C at line 103.
[65] 
FOAM parallel run exiting
[65] 
[29] 
[29] 
[29] macroScalarTransport.C at line 103.
[59] 
FOAM parallel run exiting
[59] 
[68] 
[50] 
[50] 
[50] --> FOAM FATAL ERROR: 
[50] Concentration under the threshold
[50] 
[50] 
[50]     From function macroScalarTransport
[50]     in file macroScalarTransport.C at line 103.
[50] [27] 
[27] 
[27] --> FOAM FATAL ERROR: 
[79] 
FOAM parallel run exiting
[50] 

[79] [33] 
[33] 
[33] --> FOAM FATAL ERROR: 
[33] Concentration under the threshold
[33] 
[33] 
[33]     From function macroScalarTransport
[33]     in file macroScalarTransport.C at line 103.
[33] 
FOAM parallel run exiting
[33] 
--> FOAM FATAL ERROR: 
[29] Concentration under the threshold
[29] 
[29] 
[29]     From function macroScalarTransport
[29]     in file macroScalarTransport.C at line 103.
[29] 
FOAM parallel run exiting
[29] 
[13] 
[79] --> FOAM FATAL ERROR: 
[79] Concentration under the threshold
[79] 
[79] 
[79]     From function macroScalarTransport
[79]     in file macroScalarTransport.C at line 103.
[79] 
FOAM parallel run exiting
[79] 
[27] Concentration under the threshold
[27] 
[27] 
[27]     From function macroScalarTransport
[27]     in file macroScalarTransport.C at line 103.
[27] 
FOAM parallel run exiting
[27] 

[13] 
[13] --> FOAM FATAL ERROR: 
[13] [30] Concentration under the threshold
[13] 
[13] 
[13]     From function macroScalarTransport
[13]     in file macroScalarTransport.C at line 103.
[13] 
FOAM parallel run exiting
[13] [76] 
[30] 
[30] --> FOAM FATAL ERROR: 
[30] Concentration under the threshold
[30] 
[30] 
[30] 

[76]     From function macroScalarTransport
[30]     in file macroScalarTransport.C at line 103.
[30] 
[76] --> FOAM FATAL ERROR: 
[76] Concentration under the threshold
[76] 
[76] 
[76]     From function macroScalarTransport
[76]     in file 
FOAM parallel run exiting
[30] 
macroScalarTransport.C at line 103.
[76] 
FOAM parallel run exiting
[76] 
[82] 
[82] 
[82] --> FOAM FATAL ERROR: 
[82] Concentration under the threshold
[82] 
[82] 
[82]     From function macroScalarTransport
[82]     in file macroScalarTransport.C at line 103.
[82] 
FOAM parallel run exiting
[82] 
[31] 
[31] 
[31] --> FOAM FATAL ERROR: 
[31] Concentration under the threshold
[31] 
[31] 
[31]     From function macroScalarTransport
[31]     in file macroScalarTransport.C at line 103.
[31] 
FOAM parallel run exiting
[31] 
[21] 
[21] 
[21] --> FOAM FATAL ERROR: 
[21] Concentration under the threshold
[21] 
[21] 
[21]     From function macroScalarTransport
[21]     in file macroScalarTransport.C at line 103.
[21] 
FOAM parallel run exiting
[21] 
[78] [75] 
[78] 
[78] --> FOAM FATAL ERROR: 
[78] Concentration under the threshold
[78] 
[78] 
[78]     From function macroScalarTransport
[78]     in file macroScalarTransport.C at line 103.
[78] 
FOAM parallel run exiting
[78] 

[75] 
[75] --> FOAM FATAL ERROR: 
[75] Concentration under the threshold
[75] 
[75] 
[75]     From function macroScalarTransport
[75]     in file macroScalarTransport.C at line 103.
[75] 
FOAM parallel run exiting
[75] 
[69] 
[69] [54] 
[69] --> FOAM FATAL ERROR: 
[69] Concentration under the threshold
[69] 
[69] 
[69]     From function macroScalarTransport
[69]     in file macroScalarTransport.C at line 103.
[69] 
FOAM parallel run exiting
[69] 

[54] 
[54] --> FOAM FATAL ERROR: 
[54] Concentration under the threshold
[54] 
[54] 
[54]     From function macroScalarTransport
[54]     in file macroScalarTransport.C[70]  at line 103.
[54] 
FOAM parallel run exiting
[54] 
[71] [53] 
[71] 
[71] --> FOAM FATAL ERROR: 
[71] Concentration under the threshold

[70] 
[70] --> FOAM FATAL ERROR: 
[70] Concentration under the threshold
[70] 
[70] 
[70]     From function macroScalarTransport

[53] [71] 
[71] 
[71]     From function macroScalarTransport
[71]     in file macroScalarTransport.C at line 103.
[71] 
FOAM parallel run exiting
[71] 

[53] --> FOAM FATAL ERROR: 
[53] Concentration under the threshold
[53] 
[53] 
[53]     From function macroScalarTransport
[53]     in file macroScalarTransport.C[70]     in file macroScalarTransport.C at line 103.
[70] 
FOAM parallel run exiting
[70] 
 at line 103.
[53] 
FOAM parallel run exiting
[53] 
[40] 
[40] 
[40] --> FOAM FATAL ERROR: 
[40] Concentration under the threshold
[40] 
[40] 
[40]     From function macroScalarTransport
[40]     in file macroScalarTransport.C at line 103.
[40] 
FOAM parallel run exiting
[40] 
[36] 
[36] 
[36] --> FOAM FATAL ERROR: 
[36] Concentration under the threshold
[61] 
[61] 
[61] --> FOAM FATAL ERROR: 
[61] [38] 
[38] 
[38] --> FOAM FATAL ERROR: 
[38] Concentration under the threshold
[38] 
[38] 
[38]     From function macroScalarTransport
[38]     in file macroScalarTransport.C at line 103.
[38] Concentration under the threshold
[61] 
[61] 
[61]     From function macroScalarTransport
[61]     in file macroScalarTransport.C at line 103.
[61] 
FOAM parallel run exiting
[61] 
[36] 
[36] 
[36]     From function macroScalarTransport
[36]     in file macroScalarTransport.C at line 103.
[36] 
FOAM parallel run exiting
[36] 
[43] 
[43] 
[43] --> FOAM FATAL ERROR: 
[43] Concentration under the threshold
[43] 
[43] 
[43]     From function macroScalarTransport
[43]     in file macroScalarTransport.C at line 103.
[43] 
FOAM parallel run exiting
[43] 

FOAM parallel run exiting
[38] 
[28] 
[28] 
[28] --> FOAM FATAL ERROR: 
[28] Concentration under the threshold
[28] 
[28] 
[28]     From function macroScalarTransport
[28]     in file macroScalarTransport.C at line 103.
[28] 
FOAM parallel run exiting
[28] 
[37] 
[37] 
[37] --> FOAM FATAL ERROR: 
[37] [67] Concentration under the threshold
[37] 
[37] 
[37]     From function macroScalarTransport
[37]     in file macroScalarTransport.C at line 103.
[37] 
FOAM parallel run exiting
[37] 

[67] [4] 

[67] --> FOAM FATAL ERROR: 
[67] Concentration under the threshold
[67] 
[67] 
[67]     From function macroScalarTransport
[67]     in file macroScalarTransport.C at line 103.[4] 
[4] --> FOAM FATAL ERROR: 
[4] Concentration under the threshold
[4] 
[4] 
[4]     From function macroScalarTransport

[67] 
FOAM parallel run exiting
[67] 
[4]     in file macroScalarTransport.C at line 103.
[4] 
FOAM parallel run exiting
[4] 
[35] 
[35] 
[35] --> FOAM FATAL ERROR: 
[35] Concentration under the threshold
[35] 
[35] 
[35]     From function macroScalarTransport
[35]     in file macroScalarTransport.C at line 103.[45] 

[35] 
FOAM parallel run exiting
[35] 
[45] 
[45] --> FOAM FATAL ERROR: 
[45] Concentration under the threshold
[45] 
[45] 
[45]     From function macroScalarTransport
[45]     in file macroScalarTransport.C at line 103.
[45] 
FOAM parallel run exiting
[45] 
[42] 
[42] 
[42] --> FOAM FATAL ERROR: 
[42] Concentration under the threshold
[42] 
[42] 
[42]     From function macroScalarTransport
[42]     in file macroScalarTransport.C at line 103.
[42] 
FOAM parallel run exiting
[42] 
[89] 
[89] 
[89] --> FOAM FATAL ERROR: 
[89] Concentration under the threshold
[89] 
[89] 
[89]     From function [62] 
[62] 
[62] --> FOAM FATAL ERROR: 
[62] Concentration under the threshold
[62] 
[62] 
[62]     From function macroScalarTransport
[62]     in file macroScalarTransport.CmacroScalarTransport
[89]     in file macroScalarTransport.C at line 103.
[89] 
FOAM parallel run exiting
[89] 
 at line 103.
[62] 
FOAM parallel run exiting
[62] 
[44] 
[44] 
[44] --> FOAM FATAL ERROR: 
[44] Concentration under the threshold
[44] 
[44] 
[44]     From function macroScalarTransport
[44]     in file macroScalarTransport.C at line 103.
[44] 
FOAM parallel run exiting
[44] 
[63] 
[63] 
[63] --> FOAM FATAL ERROR: 
[63] Concentration under the threshold
[63] 
[63] 
[63]     From function macroScalarTransport
[63]     in file macroScalarTransport.C at line 103.
[63] 
FOAM parallel run exiting
[63] 
[41] 
[41] 
[41] --> FOAM FATAL ERROR: 
[41] Concentration under the threshold
[41] 
[41] 
[41]     From function macroScalarTransport
[41]     in file macroScalarTransport.C at line 103.
[41] 
FOAM parallel run exiting
[41] 
[47] 
[47] 
[47] --> FOAM FATAL ERROR: 
[47] Concentration under the threshold
[47] 
[47] 
[47]     From function macroScalarTransport
[47]     in file macroScalarTransport.C at line 103.
[47] 
FOAM parallel run exiting
[47] 
[46] 
[46] 
[46] --> FOAM FATAL ERROR: 
[46] Concentration under the threshold
[46] 
[46] 
[46]     From function macroScalarTransport
[46]     in file macroScalarTransport.C at line 103.
[46] 
FOAM parallel run exiting
[46] 
[52] 
[52] 
[52] --> FOAM FATAL ERROR: 
[52] Concentration under the threshold
[52] 
[52] 
[52]     From function macroScalarTransport
[52]     in file macroScalarTransport.C at line 103.
[52] 
FOAM parallel run exiting
[52] 
--------------------------------------------------------------------------
MPI_ABORT was invoked on rank 77 in communicator MPI COMMUNICATOR 3 SPLIT FROM 0
with errorcode 1.

NOTE: invoking MPI_ABORT causes Open MPI to kill all MPI processes.
You may or may not see output from other processes, depending on
exactly when Open MPI kills them.
--------------------------------------------------------------------------
[60] 
[60] 
[60] --> FOAM FATAL ERROR: 
[60] Concentration under the threshold
[60] 
[60] 
[60]     From function macroScalarTransport
[60]     in file macroScalarTransport.C at line 103.
[60] 
FOAM parallel run exiting
[60] 
[compute024.int.augusta.nottingham.ac.uk:221456] PMIX ERROR: UNREACHABLE in file server/pmix_server.c at line 2193
[compute024.int.augusta.nottingham.ac.uk:221456] PMIX ERROR: UNREACHABLE in file server/pmix_server.c at line 2193
[compute024.int.augusta.nottingham.ac.uk:221456] PMIX ERROR: UNREACHABLE in file server/pmix_server.c at line 2193
[compute024.int.augusta.nottingham.ac.uk:221456] PMIX ERROR: UNREACHABLE in file server/pmix_server.c at line 2193
[compute024.int.augusta.nottingham.ac.uk:221456] PMIX ERROR: UNREACHABLE in file server/pmix_server.c at line 2193
[compute024.int.augusta.nottingham.ac.uk:221456] PMIX ERROR: UNREACHABLE in file server/pmix_server.c at line 2193
[compute024.int.augusta.nottingham.ac.uk:221456] PMIX ERROR: UNREACHABLE in file server/pmix_server.c at line 2193
[compute024.int.augusta.nottingham.ac.uk:221456] PMIX ERROR: UNREACHABLE in file server/pmix_server.c at line 2193
[compute024.int.augusta.nottingham.ac.uk:221456] PMIX ERROR: UNREACHABLE in file server/pmix_server.c at line 2193
[compute024.int.augusta.nottingham.ac.uk:221456] PMIX ERROR: UNREACHABLE in file server/pmix_server.c at line 2193
[compute024.int.augusta.nottingham.ac.uk:221456] PMIX ERROR: UNREACHABLE in file server/pmix_server.c at line 2193
[compute024.int.augusta.nottingham.ac.uk:221456] PMIX ERROR: UNREACHABLE in file server/pmix_server.c at line 2193
[11] 
[11] 
[11] --> FOAM FATAL ERROR: 
[11] Concentration under the threshold
[11] 
[11] 
[11]     From function macroScalarTransport
[11]     in file macroScalarTransport.C at line 103.
[11] 
FOAM parallel run exiting
[11] 
[2] 
[2] 
[2] --> FOAM FATAL ERROR: 
[2] Concentration under the threshold
[2] 
[2] 
[2]     From function macroScalarTransport
[2]     in file macroScalarTransport.C at line 103.
[2] 
FOAM parallel run exiting
[2] 
[72] 
[72] 
[72] --> FOAM FATAL ERROR: 
[72] Concentration under the threshold
[72] 
[72] 
[72]     From function macroScalarTransport
[72]     in file macroScalarTransport.C[34] 
[34] 
[34] --> FOAM FATAL ERROR: 
[34] Concentration under the threshold
[34] 
[34] 
[34]     From function macroScalarTransport
[34]     in file macroScalarTransport.C at line 103.
[34] 
FOAM parallel run exiting
[34] 
[20]  at line 103.
[72] 
FOAM parallel run exiting
[72] 

[20] 
[20] --> FOAM FATAL ERROR: 
[20] Concentration under the threshold
[20] 
[20] 
[20]     From function macroScalarTransport
[20]     in file macroScalarTransport.C at line 103.
[20] 
FOAM parallel run exiting
[20] 
[25] 
[25] 
[25] --> FOAM FATAL ERROR: 
[25] Concentration under the threshold
[25] 
[25] 
[25]     From function macroScalarTransport
[25]     in file macroScalarTransport.C at line 103.
[25] 
FOAM parallel run exiting
[25] 
[12] 
[12] 
[26] [12] --> FOAM FATAL ERROR: 
[12] Concentration under the threshold
[12] 
[12] 
[12]     From function macroScalarTransport
[12]     in file macroScalarTransport.C
[26] 
[26] --> FOAM FATAL ERROR: 
[26] Concentration under the threshold
[26] 
[26] 
 at line 103.
[12] 
FOAM parallel run exiting
[12] 
[26]     From function macroScalarTransport
[26]     in file macroScalarTransport.C at line 103.
[26] 
FOAM parallel run exiting
[26] 
[51] 
[51] 
[51] --> FOAM FATAL ERROR: 
[51] Concentration under the threshold
[51] 
[51] 
[51]     From function macroScalarTransport
[51]     in file macroScalarTransport.C at line 103.
[51] 
FOAM parallel run exiting
[51] 
[39] 
[39] 
[39] --> FOAM FATAL ERROR: 
[39] Concentration under the threshold
[39] 
[39] 
[39]     From function macroScalarTransport
[39]     in file [57] macroScalarTransport.C at line 103.
[39] 
FOAM parallel run exiting
[39] 
[93] 
[93] 
[93] --> FOAM FATAL ERROR: 
[93] Concentration under the threshold
[93] 
[93] 
[93]     From function macroScalarTransport
[93]     in file macroScalarTransport.C at line 103.
[93] 
FOAM parallel run exiting
[93] 

[57] 
[57] --> FOAM FATAL ERROR: 
[57] Concentration under the threshold
[57] 
[57] 
[57]     From function macroScalarTransport
[57]     in file macroScalarTransport.C at line 103.
[57] 
FOAM parallel run exiting
[57] 
[55] 
[55] 
[55] --> FOAM FATAL ERROR: 
[55] Concentration under the threshold
[55] 
[55] 
[55]     From function macroScalarTransport
[55]     in file macroScalarTransport.C at line 103.
[55] 
FOAM parallel run exiting
[55] 
[compute024.int.augusta.nottingham.ac.uk:221456] 95 more processes have sent help message help-mpi-api.txt / mpi-abort
[compute024.int.augusta.nottingham.ac.uk:221456] Set MCA parameter "orte_base_help_aggregate" to 0 to see all help / error messages
