/*---------------------------------------------------------------------------*\
  =========                 |
  \\      /  F ield         | OpenFOAM: The Open Source CFD Toolbox
   \\    /   O peration     | Website:  https://openfoam.org
    \\  /    A nd           | Version:  8
     \\/     M anipulation  |
\*---------------------------------------------------------------------------*/
Build  : 8-1c9b5879390b
Exec   : blockMesh
Date   : Nov 05 2022
Time   : 18:03:09
Host   : "gercphd"
PID    : 15640
I/O    : uncollated
Case   : /data/pmxep5-8/PGSFlowTransport/tutorials/RESULTS/Herten/realismDegree/Herten7_Stochastic
nProcs : 1
sigFpe : Enabling floating point exception trapping (FOAM_SIGFPE).
fileModificationChecking : Monitoring run-time modified files using timeStampMaster (fileModificationSkew 10)
allowSystemOperations : Allowing user-supplied system call operations

// * * * * * * * * * * * * * * * * * * * * * * * * * * * * * * * * * * * * * //
Create time

Creating block mesh from
    "system/blockMeshDict"
Creating block edges
No non-planar block faces defined
Creating topology blocks
Creating topology patches

Creating block mesh topology

Check topology

	Basic statistics
		Number of internal faces : 0
		Number of boundary faces : 6
		Number of defined boundary faces : 6
		Number of undefined boundary faces : 0
	Checking patch -> block consistency

Creating block offsets
Creating merge list .

Creating polyMesh from blockMesh
Creating patches
Creating cells
Creating points with scale 1
    Block 0 cell size :
        i : 0.05 .. 0.05
        j : 0.05 .. 0.05
        k : 0.05 .. 0.05

Writing polyMesh
----------------
Mesh Information
----------------
  boundingBox: (0 0 0) (16 10 7)
  nPoints: 9097461
  nCells: 8960000
  nFaces: 27016800
  nInternalFaces: 26743200
----------------
Patches
----------------
  patch 0 (start: 26743200 size: 28000) name: inlet
  patch 1 (start: 26771200 size: 28000) name: outlet
  patch 2 (start: 26799200 size: 64000) name: lowerWall
  patch 3 (start: 26863200 size: 64000) name: upperWall
  patch 4 (start: 26927200 size: 89600) name: frontAndBack

End

/*---------------------------------------------------------------------------*\
  =========                 |
  \\      /  F ield         | OpenFOAM: The Open Source CFD Toolbox
   \\    /   O peration     | Website:  https://openfoam.org
    \\  /    A nd           | Version:  8
     \\/     M anipulation  |
\*---------------------------------------------------------------------------*/
Build  : 8-1c9b5879390b
Exec   : decomposePar
Date   : Nov 05 2022
Time   : 18:04:16
Host   : "gercphd"
PID    : 15719
I/O    : uncollated
Case   : /data/pmxep5-8/PGSFlowTransport/tutorials/RESULTS/Herten/realismDegree/Herten7_Stochastic
nProcs : 1
sigFpe : Enabling floating point exception trapping (FOAM_SIGFPE).
fileModificationChecking : Monitoring run-time modified files using timeStampMaster (fileModificationSkew 10)
allowSystemOperations : Allowing user-supplied system call operations

// * * * * * * * * * * * * * * * * * * * * * * * * * * * * * * * * * * * * * //
Create time



Decomposing mesh region0

Create mesh

Calculating distribution of cells
Selecting decompositionMethod simple

Finished decomposition in 12.69 s

Calculating original mesh data

Distributing cells to processors

Distributing faces to processors

Distributing points to processors

Constructing processor meshes

Processor 0
    Number of cells = 746789
    Number of faces shared with processor 1 = 7132
    Number of faces shared with processor 3 = 7490
    Number of faces shared with processor 6 = 10633
    Number of faces shared with processor 7 = 1
    Number of processor patches = 4
    Number of processor faces = 25256
    Number of boundary faces = 25124

Processor 1
    Number of cells = 744895
    Number of faces shared with processor 0 = 7132
    Number of faces shared with processor 2 = 7073
    Number of faces shared with processor 4 = 7456
    Number of faces shared with processor 7 = 10666
    Number of processor patches = 4
    Number of processor faces = 32327
    Number of boundary faces = 18123

Processor 2
    Number of cells = 748316
    Number of faces shared with processor 1 = 7073
    Number of faces shared with processor 4 = 1
    Number of faces shared with processor 5 = 7453
    Number of faces shared with processor 8 = 10700
    Number of processor patches = 4
    Number of processor faces = 25227
    Number of boundary faces = 25153

Processor 3
    Number of cells = 749000
    Number of faces shared with processor 0 = 7490
    Number of faces shared with processor 4 = 7000
    Number of faces shared with processor 9 = 10700
    Number of processor patches = 3
    Number of processor faces = 25190
    Number of boundary faces = 25190

Processor 4
    Number of cells = 748439
    Number of faces shared with processor 1 = 7456
    Number of faces shared with processor 2 = 1
    Number of faces shared with processor 3 = 7000
    Number of faces shared with processor 5 = 7066
    Number of faces shared with processor 10 = 10666
    Number of faces shared with processor 11 = 1
    Number of processor patches = 6
    Number of processor faces = 32190
    Number of boundary faces = 18190

Processor 5
    Number of cells = 742561
    Number of faces shared with processor 2 = 7453
    Number of faces shared with processor 4 = 7066
    Number of faces shared with processor 11 = 10633
    Number of processor patches = 3
    Number of processor faces = 25152
    Number of boundary faces = 25020

Processor 6
    Number of cells = 742561
    Number of faces shared with processor 0 = 10633
    Number of faces shared with processor 7 = 7066
    Number of faces shared with processor 9 = 7453
    Number of processor patches = 3
    Number of processor faces = 25152
    Number of boundary faces = 25020

Processor 7
    Number of cells = 748439
    Number of faces shared with processor 0 = 1
    Number of faces shared with processor 1 = 10666
    Number of faces shared with processor 6 = 7066
    Number of faces shared with processor 8 = 7000
    Number of faces shared with processor 9 = 1
    Number of faces shared with processor 10 = 7456
    Number of processor patches = 6
    Number of processor faces = 32190
    Number of boundary faces = 18190

Processor 8
    Number of cells = 749000
    Number of faces shared with processor 2 = 10700
    Number of faces shared with processor 7 = 7000
    Number of faces shared with processor 11 = 7490
    Number of processor patches = 3
    Number of processor faces = 25190
    Number of boundary faces = 25190

Processor 9
    Number of cells = 748317
    Number of faces shared with processor 3 = 10700
    Number of faces shared with processor 6 = 7453
    Number of faces shared with processor 7 = 1
    Number of faces shared with processor 10 = 7073
    Number of processor patches = 4
    Number of processor faces = 25227
    Number of boundary faces = 25153

Processor 10
    Number of cells = 744894
    Number of faces shared with processor 4 = 10666
    Number of faces shared with processor 7 = 7456
    Number of faces shared with processor 9 = 7073
    Number of faces shared with processor 11 = 7132
    Number of processor patches = 4
    Number of processor faces = 32327
    Number of boundary faces = 18123

Processor 11
    Number of cells = 746789
    Number of faces shared with processor 4 = 1
    Number of faces shared with processor 5 = 10633
    Number of faces shared with processor 8 = 7490
    Number of faces shared with processor 10 = 7132
    Number of processor patches = 4
    Number of processor faces = 25256
    Number of boundary faces = 25124

Number of processor faces = 165342
Max number of cells = 749000 (0.3125% above average 746667)
Max number of processor patches = 6 (50% above average 4)
Max number of faces between processors = 32327 (17.3096% above average 27557)

Time = 0

Processor 0: field transfer
Processor 1: field transfer
Processor 2: field transfer
Processor 3: field transfer
Processor 4: field transfer
Processor 5: field transfer
Processor 6: field transfer
Processor 7: field transfer
Processor 8: field transfer
Processor 9: field transfer
Processor 10: field transfer
Processor 11: field transfer

End

/*---------------------------------------------------------------------------*\
  =========                 |
  \\      /  F ield         | OpenFOAM: The Open Source CFD Toolbox
   \\    /   O peration     | Website:  https://openfoam.org
    \\  /    A nd           | Version:  8
     \\/     M anipulation  |
\*---------------------------------------------------------------------------*/
Build  : 8-1c9b5879390b
Exec   : setRandomField -parallel
Date   : Nov 05 2022
Time   : 18:06:32
Host   : "gercphd"
PID    : 15845
I/O    : uncollated
Case   : /data/pmxep5-8/PGSFlowTransport/tutorials/RESULTS/Herten/realismDegree/Herten7_Stochastic
nProcs : 12
Slaves : 
11
(
"gercphd.15846"
"gercphd.15847"
"gercphd.15848"
"gercphd.15849"
"gercphd.15850"
"gercphd.15851"
"gercphd.15852"
"gercphd.15861"
"gercphd.15871"
"gercphd.15872"
"gercphd.15873"
)

Pstream initialized with:
    floatTransfer      : 0
    nProcsSimpleSum    : 0
    commsType          : nonBlocking
    polling iterations : 0
sigFpe : Enabling floating point exception trapping (FOAM_SIGFPE).
fileModificationChecking : Monitoring run-time modified files using timeStampMaster (fileModificationSkew 10)
allowSystemOperations : Allowing user-supplied system call operations

// * * * * * * * * * * * * * * * * * * * * * * * * * * * * * * * * * * * * * //
Create time

Create mesh for time = 0

Seed is : 650816936
nu 1

Creating a bitruncated random field 
  with exponential correlation for field K
Lcorr (10 2 0.1)
corrTol 1e-08
mu 0
sigma 1
setFinalStats 0
nfreq 20 20 20
skipfreq 0 0 0
reset 1
additive 0
disableY 0
disableZ 0
Number of dimensions: 3
periodic 1
facePeriodicity 0
fullPeriodicity 1
meshSpan (15.95 9.95 6.95)
maxLength (15.95 9.95 6.95)
minLength (2.5 0.5 0.2)
  WARNING: Not enough frequencies in z 
       Changed to 35

Generating and storing random numbers

Reading field K
--> FOAM Warning : 
    From function bool Foam::IOobject::typeHeaderOk(bool) [with Type = Foam::GeometricField<double, Foam::fvPatchField, Foam::volMesh>]
    in file /opt/openfoam8/src/OpenFOAM/lnInclude/IOobjectTemplates.C at line 57
    unexpected class name volSymmTensorField expected volScalarField when reading "/data/pmxep5-8/PGSFlowTransport/tutorials/RESULTS/Herten/realismDegree/Herten7_Stochastic/processor0/0/K"
--> FOAM Warning : 
    From function bool Foam::IOobject::typeHeaderOk(bool) [with Type = Foam::GeometricField<Foam::Vector<double>, Foam::fvPatchField, Foam::volMesh>]
    in file /opt/openfoam8/src/OpenFOAM/lnInclude/IOobjectTemplates.C at line 57
    unexpected class name volSymmTensorField expected volVectorField when reading "/data/pmxep5-8/PGSFlowTransport/tutorials/RESULTS/Herten/realismDegree/Herten7_Stochastic/processor0/0/K"
--> FOAM Warning : 
    From function bool Foam::IOobject::typeHeaderOk(bool) [with Type = Foam::GeometricField<Foam::Tensor<double>, Foam::fvPatchField, Foam::volMesh>]
    in file /opt/openfoam8/src/OpenFOAM/lnInclude/IOobjectTemplates.C at line 57
    unexpected class name volSymmTensorField expected volTensorField when reading "/data/pmxep5-8/PGSFlowTransport/tutorials/RESULTS/Herten/realismDegree/Herten7_Stochastic/processor0/0/K"
  Field is a symmetric tensor

Start computing Random Field

Percentiles 2(0.5962 0.8592)    2(0.2288 0.4288)

Thresholds 2(0.243529 1.07692)     2(-0.74291 -0.179432)

Values 9(1.3e-11 1.3e-11 5.4e-14 1.3e-11 2.1e-10 5.4e-14 7.6e-09 7.6e-09 7.6e-09)
Frequency (0 0 0) weight 1
Frequency (0 0 0.143885) weight 0.999793
Frequency (0 0 0.28777) weight 0.999173
Frequency (0 0 0.431655) weight 0.99814
Frequency (0 0 0.57554) weight 0.996698
Frequency (0 0 0.719424) weight 0.994851
Frequency (0 0 0.863309) weight 0.992602
Frequency (0 0 1.00719) weight 0.989957
Frequency (0 0 1.15108) weight 0.986923
Frequency (0 0 1.29496) weight 0.983507
Frequency (0 0 1.43885) weight 0.979717
Frequency (0 0 1.58273) weight 0.975562
Frequency (0 0 1.72662) weight 0.971051
Frequency (0 0 1.8705) weight 0.966195
Frequency (0 0 2.01439) weight 0.961005
Frequency (0 0 2.15827) weight 0.955492
Frequency (0 0 2.30216) weight 0.949668
Frequency (0 0 2.44604) weight 0.943546
Frequency (0 0 2.58993) weight 0.937139
Frequency (0 0 2.73381) weight 0.93046
Frequency (0 0 2.8777) weight 0.923522
Frequency (0 0 3.02158) weight 0.916339
Frequency (0 0 3.16547) weight 0.908924
Frequency (0 0 3.30935) weight 0.901292
Frequency (0 0 3.45324) weight 0.893457
Frequency (0 0 3.59712) weight 0.885431
Frequency (0 0 3.74101) weight 0.87723
Frequency (0 0 3.88489) weight 0.868867
Frequency (0 0 4.02878) weight 0.860355
Frequency (0 0 4.17266) weight 0.851708
Frequency (0 0 4.31655) weight 0.842939
Frequency (0 0 4.46043) weight 0.83406
Frequency (0 0 4.60432) weight 0.825084
Frequency (0 0 4.7482) weight 0.816024
Frequency (0 0 4.89209) weight 0.806891
Frequency (0 0.100503 0) weight 0.961166
Frequency (0 0.100503 0.143885) weight 0.960975
Frequency (0 0.100503 0.28777) weight 0.960402
Frequency (0 0.100503 0.431655) weight 0.959448
Frequency (0 0.100503 0.57554) weight 0.958116
Frequency (0 0.100503 0.719424) weight 0.956408
Frequency (0 0.100503 0.863309) weight 0.95433
Frequency (0 0.100503 1.00719) weight 0.951885
Frequency (0 0.100503 1.15108) weight 0.949079
Frequency (0 0.100503 1.29496) weight 0.94592
Frequency (0 0.100503 1.43885) weight 0.942413
Frequency (0 0.100503 1.58273) weight 0.938567
Frequency (0 0.100503 1.72662) weight 0.934392
Frequency (0 0.100503 1.8705) weight 0.929894
Frequency (0 0.100503 2.01439) weight 0.925086
Frequency (0 0.100503 2.15827) weight 0.919976
Frequency (0 0.100503 2.30216) weight 0.914576
Frequency (0 0.100503 2.44604) weight 0.908897
Frequency (0 0.100503 2.58993) weight 0.902951
Frequency (0 0.100503 2.73381) weight 0.896748
Frequency (0 0.100503 2.8777) weight 0.890302
Frequency (0 0.100503 3.02158) weight 0.883624
Frequency (0 0.100503 3.16547) weight 0.876728
Frequency (0 0.100503 3.30935) weight 0.869625
Frequency (0 0.100503 3.45324) weight 0.862328
Frequency (0 0.100503 3.59712) weight 0.85485
Frequency (0 0.100503 3.74101) weight 0.847203
Frequency (0 0.100503 3.88489) weight 0.8394
Frequency (0 0.100503 4.02878) weight 0.831453
Frequency (0 0.100503 4.17266) weight 0.823375
Frequency (0 0.100503 4.31655) weight 0.815176
Frequency (0 0.100503 4.46043) weight 0.80687
Frequency (0 0.100503 4.60432) weight 0.798467
Frequency (0 0.100503 4.7482) weight 0.789979
Frequency (0 0.100503 4.89209) weight 0.781416
Frequency (0 0.201005 0) weight 0.860873
Frequency (0 0.201005 0.143885) weight 0.860719
Frequency (0 0.201005 0.28777) weight 0.860259
Frequency (0 0.201005 0.431655) weight 0.859494
Frequency (0 0.201005 0.57554) weight 0.858425
Frequency (0 0.201005 0.719424) weight 0.857054
Frequency (0 0.201005 0.863309) weight 0.855384
Frequency (0 0.201005 1.00719) weight 0.85342
Frequency (0 0.201005 1.15108) weight 0.851164
Frequency (0 0.201005 1.29496) weight 0.848622
Frequency (0 0.201005 1.43885) weight 0.845798
Frequency (0 0.201005 1.58273) weight 0.8427
Frequency (0 0.201005 1.72662) weight 0.839332
Frequency (0 0.201005 1.8705) weight 0.835701
Frequency (0 0.201005 2.01439) weight 0.831815
Frequency (0 0.201005 2.15827) weight 0.827682
Frequency (0 0.201005 2.30216) weight 0.823309
Frequency (0 0.201005 2.44604) weight 0.818704
Frequency (0 0.201005 2.58993) weight 0.813875
Frequency (0 0.201005 2.73381) weight 0.808833
Frequency (0 0.201005 2.8777) weight 0.803585
Frequency (0 0.201005 3.02158) weight 0.798141
Frequency (0 0.201005 3.16547) weight 0.79251
Frequency (0 0.201005 3.30935) weight 0.786701
Frequency (0 0.201005 3.45324) weight 0.780725
Frequency (0 0.201005 3.59712) weight 0.77459
Frequency (0 0.201005 3.74101) weight 0.768307
Frequency (0 0.201005 3.88489) weight 0.761884
Frequency (0 0.201005 4.02878) weight 0.755331
Frequency (0 0.201005 4.17266) weight 0.748658
Frequency (0 0.201005 4.31655) weight 0.741874
Frequency (0 0.201005 4.46043) weight 0.734988
Frequency (0 0.201005 4.60432) weight 0.728009
Frequency (0 0.201005 4.7482) weight 0.720946
Frequency (0 0.201005 4.89209) weight 0.713808
Frequency (0 0.301508 0) weight 0.733338
Frequency (0 0.301508 0.143885) weight 0.733227
Frequency (0 0.301508 0.28777) weight 0.732893
Frequency (0 0.301508 0.431655) weight 0.732338
Frequency (0 0.301508 0.57554) weight 0.731561
Frequency (0 0.301508 0.719424) weight 0.730565
Frequency (0 0.301508 0.863309) weight 0.729352
Frequency (0 0.301508 1.00719) weight 0.727923
Frequency (0 0.301508 1.15108) weight 0.726281
Frequency (0 0.301508 1.29496) weight 0.72443
Frequency (0 0.301508 1.43885) weight 0.722371
Frequency (0 0.301508 1.58273) weight 0.72011
Frequency (0 0.301508 1.72662) weight 0.717649
Frequency (0 0.301508 1.8705) weight 0.714993
Frequency (0 0.301508 2.01439) weight 0.712147
Frequency (0 0.301508 2.15827) weight 0.709115
Frequency (0 0.301508 2.30216) weight 0.705902
Frequency (0 0.301508 2.44604) weight 0.702514
Frequency (0 0.301508 2.58993) weight 0.698956
Frequency (0 0.301508 2.73381) weight 0.695234
Frequency (0 0.301508 2.8777) weight 0.691353
Frequency (0 0.301508 3.02158) weight 0.68732
Frequency (0 0.301508 3.16547) weight 0.68314
Frequency (0 0.301508 3.30935) weight 0.67882
Frequency (0 0.301508 3.45324) weight 0.674365
Frequency (0 0.301508 3.59712) weight 0.669783
Frequency (0 0.301508 3.74101) weight 0.66508
Frequency (0 0.301508 3.88489) weight 0.660262
Frequency (0 0.301508 4.02878) weight 0.655335
Frequency (0 0.301508 4.17266) weight 0.650306
Frequency (0 0.301508 4.31655) weight 0.645181
Frequency (0 0.301508 4.46043) weight 0.639967
Frequency (0 0.301508 4.60432) weight 0.634669
Frequency (0 0.301508 4.7482) weight 0.629294
Frequency (0 0.301508 4.89209) weight 0.623849
Frequency (0 0.40201 0) weight 0.607368
Frequency (0 0.40201 0.143885) weight 0.607292
Frequency (0 0.40201 0.28777) weight 0.607063
Frequency (0 0.40201 0.431655) weight 0.606681
Frequency (0 0.40201 0.57554) weight 0.606148
Frequency (0 0.40201 0.719424) weight 0.605465
Frequency (0 0.40201 0.863309) weight 0.604631
Frequency (0 0.40201 1.00719) weight 0.603649
Frequency (0 0.40201 1.15108) weight 0.602519
Frequency (0 0.40201 1.29496) weight 0.601244
Frequency (0 0.40201 1.43885) weight 0.599826
Frequency (0 0.40201 1.58273) weight 0.598265
Frequency (0 0.40201 1.72662) weight 0.596566
Frequency (0 0.40201 1.8705) weight 0.59473
Frequency (0 0.40201 2.01439) weight 0.592759
Frequency (0 0.40201 2.15827) weight 0.590657
Frequency (0 0.40201 2.30216) weight 0.588426
Frequency (0 0.40201 2.44604) weight 0.58607
Frequency (0 0.40201 2.58993) weight 0.583592
Frequency (0 0.40201 2.73381) weight 0.580995
Frequency (0 0.40201 2.8777) weight 0.578282
Frequency (0 0.40201 3.02158) weight 0.575457
Frequency (0 0.40201 3.16547) weight 0.572524
Frequency (0 0.40201 3.30935) weight 0.569487
Frequency (0 0.40201 3.45324) weight 0.566349
Frequency (0 0.40201 3.59712) weight 0.563113
Frequency (0 0.40201 3.74101) weight 0.559785
Frequency (0 0.40201 3.88489) weight 0.556368
Frequency (0 0.40201 4.02878) weight 0.552865
Frequency (0 0.40201 4.17266) weight 0.549282
Frequency (0 0.40201 4.31655) weight 0.545621
Frequency (0 0.40201 4.46043) weight 0.541887
Frequency (0 0.40201 4.60432) weight 0.538084
Frequency (0 0.40201 4.7482) weight 0.534216
Frequency (0 0.40201 4.89209) weight 0.530286
Frequency (0 0.502513 0) weight 0.497494
Frequency (0 0.502513 0.143885) weight 0.497443
Frequency (0 0.502513 0.28777) weight 0.497289
Frequency (0 0.502513 0.431655) weight 0.497033
Frequency (0 0.502513 0.57554) weight 0.496675
Frequency (0 0.502513 0.719424) weight 0.496216
Frequency (0 0.502513 0.863309) weight 0.495656
Frequency (0 0.502513 1.00719) weight 0.494996
Frequency (0 0.502513 1.15108) weight 0.494236
Frequency (0 0.502513 1.29496) weight 0.493378
Frequency (0 0.502513 1.43885) weight 0.492422
Frequency (0 0.502513 1.58273) weight 0.49137
Frequency (0 0.502513 1.72662) weight 0.490223
Frequency (0 0.502513 1.8705) weight 0.488982
Frequency (0 0.502513 2.01439) weight 0.48765
Frequency (0 0.502513 2.15827) weight 0.486226
Frequency (0 0.502513 2.30216) weight 0.484713
Frequency (0 0.502513 2.44604) weight 0.483114
Frequency (0 0.502513 2.58993) weight 0.481428
Frequency (0 0.502513 2.73381) weight 0.479659
Frequency (0 0.502513 2.8777) weight 0.477809
Frequency (0 0.502513 3.02158) weight 0.475879
Frequency (0 0.502513 3.16547) weight 0.473871
Frequency (0 0.502513 3.30935) weight 0.471789
Frequency (0 0.502513 3.45324) weight 0.469633
Frequency (0 0.502513 3.59712) weight 0.467406
Frequency (0 0.502513 3.74101) weight 0.46511
Frequency (0 0.502513 3.88489) weight 0.462749
Frequency (0 0.502513 4.02878) weight 0.460323
Frequency (0 0.502513 4.17266) weight 0.457836
Frequency (0 0.502513 4.31655) weight 0.45529
Frequency (0 0.502513 4.46043) weight 0.452687
Frequency (0 0.502513 4.60432) weight 0.45003
Frequency (0 0.502513 4.7482) weight 0.447321
Frequency (0 0.502513 4.89209) weight 0.444563
Frequency (0 0.603015 0) weight 0.407414
Frequency (0 0.603015 0.143885) weight 0.407379
Frequency (0 0.603015 0.28777) weight 0.407276
Frequency (0 0.603015 0.431655) weight 0.407104
Frequency (0 0.603015 0.57554) weight 0.406864
Frequency (0 0.603015 0.719424) weight 0.406556
Frequency (0 0.603015 0.863309) weight 0.40618
Frequency (0 0.603015 1.00719) weight 0.405737
Frequency (0 0.603015 1.15108) weight 0.405226
Frequency (0 0.603015 1.29496) weight 0.404649
Frequency (0 0.603015 1.43885) weight 0.404006
Frequency (0 0.603015 1.58273) weight 0.403297
Frequency (0 0.603015 1.72662) weight 0.402524
Frequency (0 0.603015 1.8705) weight 0.401688
Frequency (0 0.603015 2.01439) weight 0.400788
Frequency (0 0.603015 2.15827) weight 0.399826
Frequency (0 0.603015 2.30216) weight 0.398802
Frequency (0 0.603015 2.44604) weight 0.397719
Frequency (0 0.603015 2.58993) weight 0.396576
Frequency (0 0.603015 2.73381) weight 0.395375
Frequency (0 0.603015 2.8777) weight 0.394117
Frequency (0 0.603015 3.02158) weight 0.392803
Frequency (0 0.603015 3.16547) weight 0.391434
Frequency (0 0.603015 3.30935) weight 0.390012
Frequency (0 0.603015 3.45324) weight 0.388537
Frequency (0 0.603015 3.59712) weight 0.387012
Frequency (0 0.603015 3.74101) weight 0.385437
Frequency (0 0.603015 3.88489) weight 0.383813
Frequency (0 0.603015 4.02878) weight 0.382143
Frequency (0 0.603015 4.17266) weight 0.380428
Frequency (0 0.603015 4.31655) weight 0.378668
Frequency (0 0.603015 4.46043) weight 0.376866
Frequency (0 0.603015 4.60432) weight 0.375023
Frequency (0 0.603015 4.7482) weight 0.373139
Frequency (0 0.603015 4.89209) weight 0.371218
Frequency (0 0.703518 0) weight 0.335599
Frequency (0 0.703518 0.143885) weight 0.335576
Frequency (0 0.703518 0.28777) weight 0.335506
Frequency (0 0.703518 0.431655) weight 0.335389
Frequency (0 0.703518 0.57554) weight 0.335226
Frequency (0 0.703518 0.719424) weight 0.335017
Frequency (0 0.703518 0.863309) weight 0.334762
Frequency (0 0.703518 1.00719) weight 0.33446
Frequency (0 0.703518 1.15108) weight 0.334113
Frequency (0 0.703518 1.29496) weight 0.333721
Frequency (0 0.703518 1.43885) weight 0.333283
Frequency (0 0.703518 1.58273) weight 0.332801
Frequency (0 0.703518 1.72662) weight 0.332274
Frequency (0 0.703518 1.8705) weight 0.331704
Frequency (0 0.703518 2.01439) weight 0.33109
Frequency (0 0.703518 2.15827) weight 0.330433
Frequency (0 0.703518 2.30216) weight 0.329734
Frequency (0 0.703518 2.44604) weight 0.328993
Frequency (0 0.703518 2.58993) weight 0.32821
Frequency (0 0.703518 2.73381) weight 0.327387
Frequency (0 0.703518 2.8777) weight 0.326524
Frequency (0 0.703518 3.02158) weight 0.325622
Frequency (0 0.703518 3.16547) weight 0.324681
Frequency (0 0.703518 3.30935) weight 0.323701
Frequency (0 0.703518 3.45324) weight 0.322685
Frequency (0 0.703518 3.59712) weight 0.321632
Frequency (0 0.703518 3.74101) weight 0.320544
Frequency (0 0.703518 3.88489) weight 0.31942
Frequency (0 0.703518 4.02878) weight 0.318263
Frequency (0 0.703518 4.17266) weight 0.317072
Frequency (0 0.703518 4.31655) weight 0.315849
Frequency (0 0.703518 4.46043) weight 0.314594
Frequency (0 0.703518 4.60432) weight 0.313308
Frequency (0 0.703518 4.7482) weight 0.311993
Frequency (0 0.703518 4.89209) weight 0.310648
Frequency (0 0.80402 0) weight 0.278878
Frequency (0 0.80402 0.143885) weight 0.278862
Frequency (0 0.80402 0.28777) weight 0.278814
Frequency (0 0.80402 0.431655) weight 0.278733
Frequency (0 0.80402 0.57554) weight 0.278621
Frequency (0 0.80402 0.719424) weight 0.278476
Frequency (0 0.80402 0.863309) weight 0.2783
Frequency (0 0.80402 1.00719) weight 0.278092
Frequency (0 0.80402 1.15108) weight 0.277852
Frequency (0 0.80402 1.29496) weight 0.27758
Frequency (0 0.80402 1.43885) weight 0.277277
Frequency (0 0.80402 1.58273) weight 0.276944
Frequency (0 0.80402 1.72662) weight 0.276579
Frequency (0 0.80402 1.8705) weight 0.276183
Frequency (0 0.80402 2.01439) weight 0.275758
Frequency (0 0.80402 2.15827) weight 0.275302
Frequency (0 0.80402 2.30216) weight 0.274816
Frequency (0 0.80402 2.44604) weight 0.274301
Frequency (0 0.80402 2.58993) weight 0.273757
Frequency (0 0.80402 2.73381) weight 0.273184
Frequency (0 0.80402 2.8777) weight 0.272583
Frequency (0 0.80402 3.02158) weight 0.271954
Frequency (0 0.80402 3.16547) weight 0.271297
Frequency (0 0.80402 3.30935) weight 0.270613
Frequency (0 0.80402 3.45324) weight 0.269902
Frequency (0 0.80402 3.59712) weight 0.269166
Frequency (0 0.80402 3.74101) weight 0.268403
Frequency (0 0.80402 3.88489) weight 0.267615
Frequency (0 0.80402 4.02878) weight 0.266802
Frequency (0 0.80402 4.17266) weight 0.265964
Frequency (0 0.80402 4.31655) weight 0.265103
Frequency (0 0.80402 4.46043) weight 0.264218
Frequency (0 0.80402 4.60432) weight 0.263311
Frequency (0 0.80402 4.7482) weight 0.262381
Frequency (0 0.80402 4.89209) weight 0.26143
Frequency (0 0.904523 0) weight 0.234047
Frequency (0 0.904523 0.143885) weight 0.234036
Frequency (0 0.904523 0.28777) weight 0.234002
Frequency (0 0.904523 0.431655) weight 0.233945
Frequency (0 0.904523 0.57554) weight 0.233866
Frequency (0 0.904523 0.719424) weight 0.233764
Frequency (0 0.904523 0.863309) weight 0.23364
Frequency (0 0.904523 1.00719) weight 0.233493
Frequency (0 0.904523 1.15108) weight 0.233324
Frequency (0 0.904523 1.29496) weight 0.233132
Frequency (0 0.904523 1.43885) weight 0.232918
Frequency (0 0.904523 1.58273) weight 0.232683
Frequency (0 0.904523 1.72662) weight 0.232425
Frequency (0 0.904523 1.8705) weight 0.232146
Frequency (0 0.904523 2.01439) weight 0.231845
Frequency (0 0.904523 2.15827) weight 0.231523
Frequency (0 0.904523 2.30216) weight 0.231179
Frequency (0 0.904523 2.44604) weight 0.230815
Frequency (0 0.904523 2.58993) weight 0.23043
Frequency (0 0.904523 2.73381) weight 0.230023
Frequency (0 0.904523 2.8777) weight 0.229597
Frequency (0 0.904523 3.02158) weight 0.22915
Frequency (0 0.904523 3.16547) weight 0.228684
Frequency (0 0.904523 3.30935) weight 0.228198
Frequency (0 0.904523 3.45324) weight 0.227692
Frequency (0 0.904523 3.59712) weight 0.227168
Frequency (0 0.904523 3.74101) weight 0.226624
Frequency (0 0.904523 3.88489) weight 0.226062
Frequency (0 0.904523 4.02878) weight 0.225481
Frequency (0 0.904523 4.17266) weight 0.224883
Frequency (0 0.904523 4.31655) weight 0.224267
Frequency (0 0.904523 4.46043) weight 0.223634
Frequency (0 0.904523 4.60432) weight 0.222983
Frequency (0 0.904523 4.7482) weight 0.222316
Frequency (0 0.904523 4.89209) weight 0.221633
Frequency (0 1.00503 0) weight 0.198401
Frequency (0 1.00503 0.143885) weight 0.198393
Frequency (0 1.00503 0.28777) weight 0.198368
Frequency (0 1.00503 0.431655) weight 0.198327
Frequency (0 1.00503 0.57554) weight 0.198271
Frequency (0 1.00503 0.719424) weight 0.198197
Frequency (0 1.00503 0.863309) weight 0.198108
Frequency (0 1.00503 1.00719) weight 0.198002
Frequency (0 1.00503 1.15108) weight 0.197881
Frequency (0 1.00503 1.29496) weight 0.197743
Frequency (0 1.00503 1.43885) weight 0.197589
Frequency (0 1.00503 1.58273) weight 0.19742
Frequency (0 1.00503 1.72662) weight 0.197234
Frequency (0 1.00503 1.8705) weight 0.197033
Frequency (0 1.00503 2.01439) weight 0.196816
Frequency (0 1.00503 2.15827) weight 0.196584
Frequency (0 1.00503 2.30216) weight 0.196336
Frequency (0 1.00503 2.44604) weight 0.196073
Frequency (0 1.00503 2.58993) weight 0.195795
Frequency (0 1.00503 2.73381) weight 0.195502
Frequency (0 1.00503 2.8777) weight 0.195194
Frequency (0 1.00503 3.02158) weight 0.194871
Frequency (0 1.00503 3.16547) weight 0.194533
Frequency (0 1.00503 3.30935) weight 0.194182
Frequency (0 1.00503 3.45324) weight 0.193815
Frequency (0 1.00503 3.59712) weight 0.193435
Frequency (0 1.00503 3.74101) weight 0.193041
Frequency (0 1.00503 3.88489) weight 0.192633
Frequency (0 1.00503 4.02878) weight 0.192211
Frequency (0 1.00503 4.17266) weight 0.191776
Frequency (0 1.00503 4.31655) weight 0.191328
Frequency (0 1.00503 4.46043) weight 0.190867
Frequency (0 1.00503 4.60432) weight 0.190393
Frequency (0 1.00503 4.7482) weight 0.189906
Frequency (0 1.00503 4.89209) weight 0.189407
Frequency (0 1.10553 0) weight 0.169815
Frequency (0 1.10553 0.143885) weight 0.169809
Frequency (0 1.10553 0.28777) weight 0.169791
Frequency (0 1.10553 0.431655) weight 0.169761
Frequency (0 1.10553 0.57554) weight 0.169719
Frequency (0 1.10553 0.719424) weight 0.169666
Frequency (0 1.10553 0.863309) weight 0.1696
Frequency (0 1.10553 1.00719) weight 0.169523
Frequency (0 1.10553 1.15108) weight 0.169434
Frequency (0 1.10553 1.29496) weight 0.169333
Frequency (0 1.10553 1.43885) weight 0.16922
Frequency (0 1.10553 1.58273) weight 0.169096
Frequency (0 1.10553 1.72662) weight 0.16896
Frequency (0 1.10553 1.8705) weight 0.168812
Frequency (0 1.10553 2.01439) weight 0.168653
Frequency (0 1.10553 2.15827) weight 0.168482
Frequency (0 1.10553 2.30216) weight 0.1683
Frequency (0 1.10553 2.44604) weight 0.168107
Frequency (0 1.10553 2.58993) weight 0.167902
Frequency (0 1.10553 2.73381) weight 0.167687
Frequency (0 1.10553 2.8777) weight 0.16746
Frequency (0 1.10553 3.02158) weight 0.167222
Frequency (0 1.10553 3.16547) weight 0.166974
Frequency (0 1.10553 3.30935) weight 0.166714
Frequency (0 1.10553 3.45324) weight 0.166444
Frequency (0 1.10553 3.59712) weight 0.166164
Frequency (0 1.10553 3.74101) weight 0.165873
Frequency (0 1.10553 3.88489) weight 0.165571
Frequency (0 1.10553 4.02878) weight 0.16526
Frequency (0 1.10553 4.17266) weight 0.164938
Frequency (0 1.10553 4.31655) weight 0.164607
Frequency (0 1.10553 4.46043) weight 0.164265
Frequency (0 1.10553 4.60432) weight 0.163914
Frequency (0 1.10553 4.7482) weight 0.163553
Frequency (0 1.10553 4.89209) weight 0.163183
Frequency (0 1.20603 0) weight 0.14667
Frequency (0 1.20603 0.143885) weight 0.146665
Frequency (0 1.20603 0.28777) weight 0.146652
Frequency (0 1.20603 0.431655) weight 0.14663
Frequency (0 1.20603 0.57554) weight 0.146599
Frequency (0 1.20603 0.719424) weight 0.146559
Frequency (0 1.20603 0.863309) weight 0.14651
Frequency (0 1.20603 1.00719) weight 0.146452
Frequency (0 1.20603 1.15108) weight 0.146385
Frequency (0 1.20603 1.29496) weight 0.14631
Frequency (0 1.20603 1.43885) weight 0.146226
Frequency (0 1.20603 1.58273) weight 0.146133
Frequency (0 1.20603 1.72662) weight 0.146031
Frequency (0 1.20603 1.8705) weight 0.145921
Frequency (0 1.20603 2.01439) weight 0.145802
Frequency (0 1.20603 2.15827) weight 0.145675
Frequency (0 1.20603 2.30216) weight 0.145538
Frequency (0 1.20603 2.44604) weight 0.145394
Frequency (0 1.20603 2.58993) weight 0.145241
Frequency (0 1.20603 2.73381) weight 0.14508
Frequency (0 1.20603 2.8777) weight 0.14491
Frequency (0 1.20603 3.02158) weight 0.144732
Frequency (0 1.20603 3.16547) weight 0.144546
Frequency (0 1.20603 3.30935) weight 0.144351
Frequency (0 1.20603 3.45324) weight 0.144149
Frequency (0 1.20603 3.59712) weight 0.143938
Frequency (0 1.20603 3.74101) weight 0.14372
Frequency (0 1.20603 3.88489) weight 0.143493
Frequency (0 1.20603 4.02878) weight 0.143259
Frequency (0 1.20603 4.17266) weight 0.143018
Frequency (0 1.20603 4.31655) weight 0.142768
Frequency (0 1.20603 4.46043) weight 0.142511
Frequency (0 1.20603 4.60432) weight 0.142247
Frequency (0 1.20603 4.7482) weight 0.141975
Frequency (0 1.20603 4.89209) weight 0.141696
Frequency (0 1.30653 0) weight 0.127745
Frequency (0 1.30653 0.143885) weight 0.127741
Frequency (0 1.30653 0.28777) weight 0.127731
Frequency (0 1.30653 0.431655) weight 0.127714
Frequency (0 1.30653 0.57554) weight 0.127691
Frequency (0 1.30653 0.719424) weight 0.12766
Frequency (0 1.30653 0.863309) weight 0.127623
Frequency (0 1.30653 1.00719) weight 0.127579
Frequency (0 1.30653 1.15108) weight 0.127529
Frequency (0 1.30653 1.29496) weight 0.127472
Frequency (0 1.30653 1.43885) weight 0.127408
Frequency (0 1.30653 1.58273) weight 0.127337
Frequency (0 1.30653 1.72662) weight 0.12726
Frequency (0 1.30653 1.8705) weight 0.127176
Frequency (0 1.30653 2.01439) weight 0.127086
Frequency (0 1.30653 2.15827) weight 0.126989
Frequency (0 1.30653 2.30216) weight 0.126886
Frequency (0 1.30653 2.44604) weight 0.126776
Frequency (0 1.30653 2.58993) weight 0.126659
Frequency (0 1.30653 2.73381) weight 0.126537
Frequency (0 1.30653 2.8777) weight 0.126408
Frequency (0 1.30653 3.02158) weight 0.126272
Frequency (0 1.30653 3.16547) weight 0.12613
Frequency (0 1.30653 3.30935) weight 0.125982
Frequency (0 1.30653 3.45324) weight 0.125828
Frequency (0 1.30653 3.59712) weight 0.125668
Frequency (0 1.30653 3.74101) weight 0.125501
Frequency (0 1.30653 3.88489) weight 0.125328
Frequency (0 1.30653 4.02878) weight 0.12515
Frequency (0 1.30653 4.17266) weight 0.124965
Frequency (0 1.30653 4.31655) weight 0.124775
Frequency (0 1.30653 4.46043) weight 0.124579
Frequency (0 1.30653 4.60432) weight 0.124376
Frequency (0 1.30653 4.7482) weight 0.124169
Frequency (0 1.30653 4.89209) weight 0.123955
Frequency (0 1.40704 0) weight 0.11212
Frequency (0 1.40704 0.143885) weight 0.112118
Frequency (0 1.40704 0.28777) weight 0.11211
Frequency (0 1.40704 0.431655) weight 0.112097
Frequency (0 1.40704 0.57554) weight 0.112079
Frequency (0 1.40704 0.719424) weight 0.112055
Frequency (0 1.40704 0.863309) weight 0.112027
Frequency (0 1.40704 1.00719) weight 0.111993
Frequency (0 1.40704 1.15108) weight 0.111954
Frequency (0 1.40704 1.29496) weight 0.11191
Frequency (0 1.40704 1.43885) weight 0.111861
Frequency (0 1.40704 1.58273) weight 0.111806
Frequency (0 1.40704 1.72662) weight 0.111747
Frequency (0 1.40704 1.8705) weight 0.111682
Frequency (0 1.40704 2.01439) weight 0.111613
Frequency (0 1.40704 2.15827) weight 0.111538
Frequency (0 1.40704 2.30216) weight 0.111458
Frequency (0 1.40704 2.44604) weight 0.111373
Frequency (0 1.40704 2.58993) weight 0.111283
Frequency (0 1.40704 2.73381) weight 0.111189
Frequency (0 1.40704 2.8777) weight 0.111089
Frequency (0 1.40704 3.02158) weight 0.110984
Frequency (0 1.40704 3.16547) weight 0.110875
Frequency (0 1.40704 3.30935) weight 0.11076
Frequency (0 1.40704 3.45324) weight 0.110641
Frequency (0 1.40704 3.59712) weight 0.110517
Frequency (0 1.40704 3.74101) weight 0.110388
Frequency (0 1.40704 3.88489) weight 0.110255
Frequency (0 1.40704 4.02878) weight 0.110116
Frequency (0 1.40704 4.17266) weight 0.109973
Frequency (0 1.40704 4.31655) weight 0.109826
Frequency (0 1.40704 4.46043) weight 0.109674
Frequency (0 1.40704 4.60432) weight 0.109517
Frequency (0 1.40704 4.7482) weight 0.109356
Frequency (0 1.40704 4.89209) weight 0.10919
Frequency (0 1.50754 0) weight 0.0991014
Frequency (0 1.50754 0.143885) weight 0.0990993
Frequency (0 1.50754 0.28777) weight 0.0990932
Frequency (0 1.50754 0.431655) weight 0.0990831
Frequency (0 1.50754 0.57554) weight 0.0990688
Frequency (0 1.50754 0.719424) weight 0.0990505
Frequency (0 1.50754 0.863309) weight 0.0990282
Frequency (0 1.50754 1.00719) weight 0.0990018
Frequency (0 1.50754 1.15108) weight 0.0989714
Frequency (0 1.50754 1.29496) weight 0.0989369
Frequency (0 1.50754 1.43885) weight 0.0988984
Frequency (0 1.50754 1.58273) weight 0.0988559
Frequency (0 1.50754 1.72662) weight 0.0988094
Frequency (0 1.50754 1.8705) weight 0.0987589
Frequency (0 1.50754 2.01439) weight 0.0987044
Frequency (0 1.50754 2.15827) weight 0.098646
Frequency (0 1.50754 2.30216) weight 0.0985836
Frequency (0 1.50754 2.44604) weight 0.0985172
Frequency (0 1.50754 2.58993) weight 0.0984469
Frequency (0 1.50754 2.73381) weight 0.0983727
Frequency (0 1.50754 2.8777) weight 0.0982947
Frequency (0 1.50754 3.02158) weight 0.0982127
Frequency (0 1.50754 3.16547) weight 0.0981269
Frequency (0 1.50754 3.30935) weight 0.0980373
Frequency (0 1.50754 3.45324) weight 0.0979439
Frequency (0 1.50754 3.59712) weight 0.0978467
Frequency (0 1.50754 3.74101) weight 0.0977457
Frequency (0 1.50754 3.88489) weight 0.097641
Frequency (0 1.50754 4.02878) weight 0.0975325
Frequency (0 1.50754 4.17266) weight 0.0974204
Frequency (0 1.50754 4.31655) weight 0.0973046
Frequency (0 1.50754 4.46043) weight 0.0971852
Frequency (0 1.50754 4.60432) weight 0.0970622
Frequency (0 1.50754 4.7482) weight 0.0969355
Frequency (0 1.50754 4.89209) weight 0.0968054
Frequency (0 1.60804 0) weight 0.0881588
Frequency (0 1.60804 0.143885) weight 0.0881571
Frequency (0 1.60804 0.28777) weight 0.0881523
Frequency (0 1.60804 0.431655) weight 0.0881443
Frequency (0 1.60804 0.57554) weight 0.088133
Frequency (0 1.60804 0.719424) weight 0.0881185
Frequency (0 1.60804 0.863309) weight 0.0881009
Frequency (0 1.60804 1.00719) weight 0.08808
Frequency (0 1.60804 1.15108) weight 0.0880559
Frequency (0 1.60804 1.29496) weight 0.0880286
Frequency (0 1.60804 1.43885) weight 0.0879981
Frequency (0 1.60804 1.58273) weight 0.0879645
Frequency (0 1.60804 1.72662) weight 0.0879277
Frequency (0 1.60804 1.8705) weight 0.0878877
Frequency (0 1.60804 2.01439) weight 0.0878445
Frequency (0 1.60804 2.15827) weight 0.0877982
Frequency (0 1.60804 2.30216) weight 0.0877488
Frequency (0 1.60804 2.44604) weight 0.0876962
Frequency (0 1.60804 2.58993) weight 0.0876405
Frequency (0 1.60804 2.73381) weight 0.0875817
Frequency (0 1.60804 2.8777) weight 0.0875198
Frequency (0 1.60804 3.02158) weight 0.0874548
Frequency (0 1.60804 3.16547) weight 0.0873868
Frequency (0 1.60804 3.30935) weight 0.0873157
Frequency (0 1.60804 3.45324) weight 0.0872416
Frequency (0 1.60804 3.59712) weight 0.0871645
Frequency (0 1.60804 3.74101) weight 0.0870843
Frequency (0 1.60804 3.88489) weight 0.0870012
Frequency (0 1.60804 4.02878) weight 0.0869151
Frequency (0 1.60804 4.17266) weight 0.086826
Frequency (0 1.60804 4.31655) weight 0.086734
Frequency (0 1.60804 4.46043) weight 0.0866391
Frequency (0 1.60804 4.60432) weight 0.0865413
Frequency (0 1.60804 4.7482) weight 0.0864407
Frequency (0 1.60804 4.89209) weight 0.0863372
Frequency (0 1.70854 0) weight 0.0788863
Frequency (0 1.70854 0.143885) weight 0.078885
Frequency (0 1.70854 0.28777) weight 0.0788811
Frequency (0 1.70854 0.431655) weight 0.0788747
Frequency (0 1.70854 0.57554) weight 0.0788657
Frequency (0 1.70854 0.719424) weight 0.0788541
Frequency (0 1.70854 0.863309) weight 0.0788399
Frequency (0 1.70854 1.00719) weight 0.0788232
Frequency (0 1.70854 1.15108) weight 0.0788039
Frequency (0 1.70854 1.29496) weight 0.0787821
Frequency (0 1.70854 1.43885) weight 0.0787577
Frequency (0 1.70854 1.58273) weight 0.0787307
Frequency (0 1.70854 1.72662) weight 0.0787012
Frequency (0 1.70854 1.8705) weight 0.0786692
Frequency (0 1.70854 2.01439) weight 0.0786346
Frequency (0 1.70854 2.15827) weight 0.0785975
Frequency (0 1.70854 2.30216) weight 0.0785579
Frequency (0 1.70854 2.44604) weight 0.0785157
Frequency (0 1.70854 2.58993) weight 0.0784711
Frequency (0 1.70854 2.73381) weight 0.0784239
Frequency (0 1.70854 2.8777) weight 0.0783743
Frequency (0 1.70854 3.02158) weight 0.0783222
Frequency (0 1.70854 3.16547) weight 0.0782676
Frequency (0 1.70854 3.30935) weight 0.0782106
Frequency (0 1.70854 3.45324) weight 0.0781511
Frequency (0 1.70854 3.59712) weight 0.0780892
Frequency (0 1.70854 3.74101) weight 0.0780249
Frequency (0 1.70854 3.88489) weight 0.0779581
Frequency (0 1.70854 4.02878) weight 0.077889
Frequency (0 1.70854 4.17266) weight 0.0778175
Frequency (0 1.70854 4.31655) weight 0.0777436
Frequency (0 1.70854 4.46043) weight 0.0776673
Frequency (0 1.70854 4.60432) weight 0.0775887
Frequency (0 1.70854 4.7482) weight 0.0775078
Frequency (0 1.70854 4.89209) weight 0.0774246
Frequency (0 1.80905 0) weight 0.0709694
Frequency (0 1.80905 0.143885) weight 0.0709684
Frequency (0 1.80905 0.28777) weight 0.0709652
Frequency (0 1.80905 0.431655) weight 0.07096
Frequency (0 1.80905 0.57554) weight 0.0709527
Frequency (0 1.80905 0.719424) weight 0.0709433
Frequency (0 1.80905 0.863309) weight 0.0709319
Frequency (0 1.80905 1.00719) weight 0.0709183
Frequency (0 1.80905 1.15108) weight 0.0709027
Frequency (0 1.80905 1.29496) weight 0.070885
Frequency (0 1.80905 1.43885) weight 0.0708653
Frequency (0 1.80905 1.58273) weight 0.0708435
Frequency (0 1.80905 1.72662) weight 0.0708196
Frequency (0 1.80905 1.8705) weight 0.0707936
Frequency (0 1.80905 2.01439) weight 0.0707656
Frequency (0 1.80905 2.15827) weight 0.0707356
Frequency (0 1.80905 2.30216) weight 0.0707035
Frequency (0 1.80905 2.44604) weight 0.0706693
Frequency (0 1.80905 2.58993) weight 0.0706332
Frequency (0 1.80905 2.73381) weight 0.070595
Frequency (0 1.80905 2.8777) weight 0.0705548
Frequency (0 1.80905 3.02158) weight 0.0705125
Frequency (0 1.80905 3.16547) weight 0.0704683
Frequency (0 1.80905 3.30935) weight 0.0704221
Frequency (0 1.80905 3.45324) weight 0.0703738
Frequency (0 1.80905 3.59712) weight 0.0703236
Frequency (0 1.80905 3.74101) weight 0.0702715
Frequency (0 1.80905 3.88489) weight 0.0702173
Frequency (0 1.80905 4.02878) weight 0.0701612
Frequency (0 1.80905 4.17266) weight 0.0701032
Frequency (0 1.80905 4.31655) weight 0.0700432
Frequency (0 1.80905 4.46043) weight 0.0699813
Frequency (0 1.80905 4.60432) weight 0.0699175
Frequency (0 1.80905 4.7482) weight 0.0698518
Frequency (0 1.80905 4.89209) weight 0.0697841
Frequency (0 1.90955 0) weight 0.0641622
Frequency (0 1.90955 0.143885) weight 0.0641614
Frequency (0 1.90955 0.28777) weight 0.0641588
Frequency (0 1.90955 0.431655) weight 0.0641546
Frequency (0 1.90955 0.57554) weight 0.0641486
Frequency (0 1.90955 0.719424) weight 0.0641409
Frequency (0 1.90955 0.863309) weight 0.0641316
Frequency (0 1.90955 1.00719) weight 0.0641205
Frequency (0 1.90955 1.15108) weight 0.0641077
Frequency (0 1.90955 1.29496) weight 0.0640933
Frequency (0 1.90955 1.43885) weight 0.0640771
Frequency (0 1.90955 1.58273) weight 0.0640593
Frequency (0 1.90955 1.72662) weight 0.0640397
Frequency (0 1.90955 1.8705) weight 0.0640185
Frequency (0 1.90955 2.01439) weight 0.0639956
Frequency (0 1.90955 2.15827) weight 0.063971
Frequency (0 1.90955 2.30216) weight 0.0639448
Frequency (0 1.90955 2.44604) weight 0.0639169
Frequency (0 1.90955 2.58993) weight 0.0638873
Frequency (0 1.90955 2.73381) weight 0.063856
Frequency (0 1.90955 2.8777) weight 0.0638231
Frequency (0 1.90955 3.02158) weight 0.0637886
Frequency (0 1.90955 3.16547) weight 0.0637524
Frequency (0 1.90955 3.30935) weight 0.0637145
Frequency (0 1.90955 3.45324) weight 0.063675
Frequency (0 1.90955 3.59712) weight 0.0636339
Frequency (0 1.90955 3.74101) weight 0.0635912
Frequency (0 1.90955 3.88489) weight 0.0635469
Frequency (0 1.90955 4.02878) weight 0.0635009
Frequency (0 1.90955 4.17266) weight 0.0634534
Frequency (0 1.90955 4.31655) weight 0.0634042
Frequency (0 1.90955 4.46043) weight 0.0633535
Frequency (0 1.90955 4.60432) weight 0.0633012
Frequency (0 1.90955 4.7482) weight 0.0632473
Frequency (0 1.90955 4.89209) weight 0.0631919
Frequency (0.0626959 0 0) weight 0.717835
Frequency (0.0626959 0 0.143885) weight 0.717728
Frequency (0.0626959 0 0.28777) weight 0.717408
Frequency (0.0626959 0 0.431655) weight 0.716876
Frequency (0.0626959 0 0.57554) weight 0.716132
Frequency (0.0626959 0 0.719424) weight 0.715178
Frequency (0.0626959 0 0.863309) weight 0.714015
Frequency (0.0626959 0 1.00719) weight 0.712645
Frequency (0.0626959 0 1.15108) weight 0.711072
Frequency (0.0626959 0 1.29496) weight 0.709297
Frequency (0.0626959 0 1.43885) weight 0.707323
Frequency (0.0626959 0 1.58273) weight 0.705155
Frequency (0.0626959 0 1.72662) weight 0.702795
Frequency (0.0626959 0 1.8705) weight 0.700248
Frequency (0.0626959 0 2.01439) weight 0.697518
Frequency (0.0626959 0 2.15827) weight 0.694609
Frequency (0.0626959 0 2.30216) weight 0.691526
Frequency (0.0626959 0 2.44604) weight 0.688274
Frequency (0.0626959 0 2.58993) weight 0.684859
Frequency (0.0626959 0 2.73381) weight 0.681285
Frequency (0.0626959 0 2.8777) weight 0.677558
Frequency (0.0626959 0 3.02158) weight 0.673683
Frequency (0.0626959 0 3.16547) weight 0.669667
Frequency (0.0626959 0 3.30935) weight 0.665515
Frequency (0.0626959 0 3.45324) weight 0.661233
Frequency (0.0626959 0 3.59712) weight 0.656827
Frequency (0.0626959 0 3.74101) weight 0.652303
Frequency (0.0626959 0 3.88489) weight 0.647668
Frequency (0.0626959 0 4.02878) weight 0.642926
Frequency (0.0626959 0 4.17266) weight 0.638085
Frequency (0.0626959 0 4.31655) weight 0.63315
Frequency (0.0626959 0 4.46043) weight 0.628128
Frequency (0.0626959 0 4.60432) weight 0.623024
Frequency (0.0626959 0 4.7482) weight 0.617844
Frequency (0.0626959 0 4.89209) weight 0.612594
Frequency (0.0626959 0.100503 0) weight 0.697603
Frequency (0.0626959 0.100503 0.143885) weight 0.697502
Frequency (0.0626959 0.100503 0.28777) weight 0.6972
Frequency (0.0626959 0.100503 0.431655) weight 0.696697
Frequency (0.0626959 0.100503 0.57554) weight 0.695994
Frequency (0.0626959 0.100503 0.719424) weight 0.695093
Frequency (0.0626959 0.100503 0.863309) weight 0.693994
Frequency (0.0626959 0.100503 1.00719) weight 0.692701
Frequency (0.0626959 0.100503 1.15108) weight 0.691214
Frequency (0.0626959 0.100503 1.29496) weight 0.689536
Frequency (0.0626959 0.100503 1.43885) weight 0.687671
Frequency (0.0626959 0.100503 1.58273) weight 0.685621
Frequency (0.0626959 0.100503 1.72662) weight 0.68339
Frequency (0.0626959 0.100503 1.8705) weight 0.680981
Frequency (0.0626959 0.100503 2.01439) weight 0.678399
Frequency (0.0626959 0.100503 2.15827) weight 0.675647
Frequency (0.0626959 0.100503 2.30216) weight 0.67273
Frequency (0.0626959 0.100503 2.44604) weight 0.669652
Frequency (0.0626959 0.100503 2.58993) weight 0.666419
Frequency (0.0626959 0.100503 2.73381) weight 0.663034
Frequency (0.0626959 0.100503 2.8777) weight 0.659503
Frequency (0.0626959 0.100503 3.02158) weight 0.655832
Frequency (0.0626959 0.100503 3.16547) weight 0.652025
Frequency (0.0626959 0.100503 3.30935) weight 0.648089
Frequency (0.0626959 0.100503 3.45324) weight 0.644027
Frequency (0.0626959 0.100503 3.59712) weight 0.639847
Frequency (0.0626959 0.100503 3.74101) weight 0.635553
Frequency (0.0626959 0.100503 3.88489) weight 0.631152
Frequency (0.0626959 0.100503 4.02878) weight 0.626648
Frequency (0.0626959 0.100503 4.17266) weight 0.622048
Frequency (0.0626959 0.100503 4.31655) weight 0.617358
Frequency (0.0626959 0.100503 4.46043) weight 0.612582
Frequency (0.0626959 0.100503 4.60432) weight 0.607726
Frequency (0.0626959 0.100503 4.7482) weight 0.602796
Frequency (0.0626959 0.100503 4.89209) weight 0.597798
Frequency (0.0626959 0.201005 0) weight 0.643215
Frequency (0.0626959 0.201005 0.143885) weight 0.643129
Frequency (0.0626959 0.201005 0.28777) weight 0.642873
Frequency (0.0626959 0.201005 0.431655) weight 0.642445
Frequency (0.0626959 0.201005 0.57554) weight 0.641848
Frequency (0.0626959 0.201005 0.719424) weight 0.641081
Frequency (0.0626959 0.201005 0.863309) weight 0.640146
Frequency (0.0626959 0.201005 1.00719) weight 0.639045
Frequency (0.0626959 0.201005 1.15108) weight 0.63778
Frequency (0.0626959 0.201005 1.29496) weight 0.636351
Frequency (0.0626959 0.201005 1.43885) weight 0.634762
Frequency (0.0626959 0.201005 1.58273) weight 0.633015
Frequency (0.0626959 0.201005 1.72662) weight 0.631113
Frequency (0.0626959 0.201005 1.8705) weight 0.629058
Frequency (0.0626959 0.201005 2.01439) weight 0.626854
Frequency (0.0626959 0.201005 2.15827) weight 0.624504
Frequency (0.0626959 0.201005 2.30216) weight 0.622011
Frequency (0.0626959 0.201005 2.44604) weight 0.619379
Frequency (0.0626959 0.201005 2.58993) weight 0.616611
Frequency (0.0626959 0.201005 2.73381) weight 0.613713
Frequency (0.0626959 0.201005 2.8777) weight 0.610686
Frequency (0.0626959 0.201005 3.02158) weight 0.607537
Frequency (0.0626959 0.201005 3.16547) weight 0.604269
Frequency (0.0626959 0.201005 3.30935) weight 0.600886
Frequency (0.0626959 0.201005 3.45324) weight 0.597394
Frequency (0.0626959 0.201005 3.59712) weight 0.593795
Frequency (0.0626959 0.201005 3.74101) weight 0.590095
Frequency (0.0626959 0.201005 3.88489) weight 0.586299
Frequency (0.0626959 0.201005 4.02878) weight 0.582411
Frequency (0.0626959 0.201005 4.17266) weight 0.578436
Frequency (0.0626959 0.201005 4.31655) weight 0.574377
Frequency (0.0626959 0.201005 4.46043) weight 0.570241
Frequency (0.0626959 0.201005 4.60432) weight 0.566031
Frequency (0.0626959 0.201005 4.7482) weight 0.561752
Frequency (0.0626959 0.201005 4.89209) weight 0.557409
Frequency (0.0626959 0.301508 0) weight 0.569248
Frequency (0.0626959 0.301508 0.143885) weight 0.56918
Frequency (0.0626959 0.301508 0.28777) weight 0.568979
Frequency (0.0626959 0.301508 0.431655) weight 0.568644
Frequency (0.0626959 0.301508 0.57554) weight 0.568176
Frequency (0.0626959 0.301508 0.719424) weight 0.567575
Frequency (0.0626959 0.301508 0.863309) weight 0.566843
Frequency (0.0626959 0.301508 1.00719) weight 0.565979
Frequency (0.0626959 0.301508 1.15108) weight 0.564986
Frequency (0.0626959 0.301508 1.29496) weight 0.563865
Frequency (0.0626959 0.301508 1.43885) weight 0.562617
Frequency (0.0626959 0.301508 1.58273) weight 0.561244
Frequency (0.0626959 0.301508 1.72662) weight 0.559748
Frequency (0.0626959 0.301508 1.8705) weight 0.558131
Frequency (0.0626959 0.301508 2.01439) weight 0.556395
Frequency (0.0626959 0.301508 2.15827) weight 0.554543
Frequency (0.0626959 0.301508 2.30216) weight 0.552576
Frequency (0.0626959 0.301508 2.44604) weight 0.550498
Frequency (0.0626959 0.301508 2.58993) weight 0.548311
Frequency (0.0626959 0.301508 2.73381) weight 0.546018
Frequency (0.0626959 0.301508 2.8777) weight 0.543621
Frequency (0.0626959 0.301508 3.02158) weight 0.541124
Frequency (0.0626959 0.301508 3.16547) weight 0.53853
Frequency (0.0626959 0.301508 3.30935) weight 0.535842
Frequency (0.0626959 0.301508 3.45324) weight 0.533062
Frequency (0.0626959 0.301508 3.59712) weight 0.530195
Frequency (0.0626959 0.301508 3.74101) weight 0.527244
Frequency (0.0626959 0.301508 3.88489) weight 0.524211
Frequency (0.0626959 0.301508 4.02878) weight 0.521101
Frequency (0.0626959 0.301508 4.17266) weight 0.517916
Frequency (0.0626959 0.301508 4.31655) weight 0.51466
Frequency (0.0626959 0.301508 4.46043) weight 0.511336
Frequency (0.0626959 0.301508 4.60432) weight 0.507949
Frequency (0.0626959 0.301508 4.7482) weight 0.5045
Frequency (0.0626959 0.301508 4.89209) weight 0.500994
Frequency (0.0626959 0.40201 0) weight 0.49031
Frequency (0.0626959 0.40201 0.143885) weight 0.49026
Frequency (0.0626959 0.40201 0.28777) weight 0.490111
Frequency (0.0626959 0.40201 0.431655) weight 0.489862
Frequency (0.0626959 0.40201 0.57554) weight 0.489515
Frequency (0.0626959 0.40201 0.719424) weight 0.489069
Frequency (0.0626959 0.40201 0.863309) weight 0.488525
Frequency (0.0626959 0.40201 1.00719) weight 0.487883
Frequency (0.0626959 0.40201 1.15108) weight 0.487145
Frequency (0.0626959 0.40201 1.29496) weight 0.486311
Frequency (0.0626959 0.40201 1.43885) weight 0.485383
Frequency (0.0626959 0.40201 1.58273) weight 0.484361
Frequency (0.0626959 0.40201 1.72662) weight 0.483246
Frequency (0.0626959 0.40201 1.8705) weight 0.482041
Frequency (0.0626959 0.40201 2.01439) weight 0.480745
Frequency (0.0626959 0.40201 2.15827) weight 0.479362
Frequency (0.0626959 0.40201 2.30216) weight 0.477891
Frequency (0.0626959 0.40201 2.44604) weight 0.476336
Frequency (0.0626959 0.40201 2.58993) weight 0.474698
Frequency (0.0626959 0.40201 2.73381) weight 0.472978
Frequency (0.0626959 0.40201 2.8777) weight 0.471179
Frequency (0.0626959 0.40201 3.02158) weight 0.469302
Frequency (0.0626959 0.40201 3.16547) weight 0.467349
Frequency (0.0626959 0.40201 3.30935) weight 0.465323
Frequency (0.0626959 0.40201 3.45324) weight 0.463226
Frequency (0.0626959 0.40201 3.59712) weight 0.461059
Frequency (0.0626959 0.40201 3.74101) weight 0.458826
Frequency (0.0626959 0.40201 3.88489) weight 0.456527
Frequency (0.0626959 0.40201 4.02878) weight 0.454166
Frequency (0.0626959 0.40201 4.17266) weight 0.451745
Frequency (0.0626959 0.40201 4.31655) weight 0.449266
Frequency (0.0626959 0.40201 4.46043) weight 0.446732
Frequency (0.0626959 0.40201 4.60432) weight 0.444144
Frequency (0.0626959 0.40201 4.7482) weight 0.441505
Frequency (0.0626959 0.40201 4.89209) weight 0.438818
Frequency (0.0626959 0.502513 0) weight 0.41612
Frequency (0.0626959 0.502513 0.143885) weight 0.416084
Frequency (0.0626959 0.502513 0.28777) weight 0.415977
Frequency (0.0626959 0.502513 0.431655) weight 0.415798
Frequency (0.0626959 0.502513 0.57554) weight 0.415547
Frequency (0.0626959 0.502513 0.719424) weight 0.415226
Frequency (0.0626959 0.502513 0.863309) weight 0.414833
Frequency (0.0626959 0.502513 1.00719) weight 0.414371
Frequency (0.0626959 0.502513 1.15108) weight 0.413838
Frequency (0.0626959 0.502513 1.29496) weight 0.413236
Frequency (0.0626959 0.502513 1.43885) weight 0.412566
Frequency (0.0626959 0.502513 1.58273) weight 0.411827
Frequency (0.0626959 0.502513 1.72662) weight 0.411021
Frequency (0.0626959 0.502513 1.8705) weight 0.410149
Frequency (0.0626959 0.502513 2.01439) weight 0.40921
Frequency (0.0626959 0.502513 2.15827) weight 0.408207
Frequency (0.0626959 0.502513 2.30216) weight 0.407141
Frequency (0.0626959 0.502513 2.44604) weight 0.406011
Frequency (0.0626959 0.502513 2.58993) weight 0.40482
Frequency (0.0626959 0.502513 2.73381) weight 0.403569
Frequency (0.0626959 0.502513 2.8777) weight 0.402258
Frequency (0.0626959 0.502513 3.02158) weight 0.400889
Frequency (0.0626959 0.502513 3.16547) weight 0.399464
Frequency (0.0626959 0.502513 3.30935) weight 0.397983
Frequency (0.0626959 0.502513 3.45324) weight 0.396448
Frequency (0.0626959 0.502513 3.59712) weight 0.39486
Frequency (0.0626959 0.502513 3.74101) weight 0.39322
Frequency (0.0626959 0.502513 3.88489) weight 0.391531
Frequency (0.0626959 0.502513 4.02878) weight 0.389793
Frequency (0.0626959 0.502513 4.17266) weight 0.388008
Frequency (0.0626959 0.502513 4.31655) weight 0.386178
Frequency (0.0626959 0.502513 4.46043) weight 0.384304
Frequency (0.0626959 0.502513 4.60432) weight 0.382387
Frequency (0.0626959 0.502513 4.7482) weight 0.38043
Frequency (0.0626959 0.502513 4.89209) weight 0.378433
Frequency (0.0626959 0.603015 0) weight 0.351175
Frequency (0.0626959 0.603015 0.143885) weight 0.351149
Frequency (0.0626959 0.603015 0.28777) weight 0.351072
Frequency (0.0626959 0.603015 0.431655) weight 0.350945
Frequency (0.0626959 0.603015 0.57554) weight 0.350767
Frequency (0.0626959 0.603015 0.719424) weight 0.350537
Frequency (0.0626959 0.603015 0.863309) weight 0.350258
Frequency (0.0626959 0.603015 1.00719) weight 0.349928
Frequency (0.0626959 0.603015 1.15108) weight 0.349548
Frequency (0.0626959 0.603015 1.29496) weight 0.349119
Frequency (0.0626959 0.603015 1.43885) weight 0.34864
Frequency (0.0626959 0.603015 1.58273) weight 0.348112
Frequency (0.0626959 0.603015 1.72662) weight 0.347536
Frequency (0.0626959 0.603015 1.8705) weight 0.346912
Frequency (0.0626959 0.603015 2.01439) weight 0.346241
Frequency (0.0626959 0.603015 2.15827) weight 0.345522
Frequency (0.0626959 0.603015 2.30216) weight 0.344758
Frequency (0.0626959 0.603015 2.44604) weight 0.343948
Frequency (0.0626959 0.603015 2.58993) weight 0.343093
Frequency (0.0626959 0.603015 2.73381) weight 0.342193
Frequency (0.0626959 0.603015 2.8777) weight 0.341251
Frequency (0.0626959 0.603015 3.02158) weight 0.340265
Frequency (0.0626959 0.603015 3.16547) weight 0.339237
Frequency (0.0626959 0.603015 3.30935) weight 0.338169
Frequency (0.0626959 0.603015 3.45324) weight 0.33706
Frequency (0.0626959 0.603015 3.59712) weight 0.335911
Frequency (0.0626959 0.603015 3.74101) weight 0.334724
Frequency (0.0626959 0.603015 3.88489) weight 0.333499
Frequency (0.0626959 0.603015 4.02878) weight 0.332237
Frequency (0.0626959 0.603015 4.17266) weight 0.33094
Frequency (0.0626959 0.603015 4.31655) weight 0.329607
Frequency (0.0626959 0.603015 4.46043) weight 0.328241
Frequency (0.0626959 0.603015 4.60432) weight 0.326842
Frequency (0.0626959 0.603015 4.7482) weight 0.325411
Frequency (0.0626959 0.603015 4.89209) weight 0.323948
Frequency (0.0626959 0.703518 0) weight 0.296487
Frequency (0.0626959 0.703518 0.143885) weight 0.296469
Frequency (0.0626959 0.703518 0.28777) weight 0.296415
Frequency (0.0626959 0.703518 0.431655) weight 0.296324
Frequency (0.0626959 0.703518 0.57554) weight 0.296196
Frequency (0.0626959 0.703518 0.719424) weight 0.296033
Frequency (0.0626959 0.703518 0.863309) weight 0.295834
Frequency (0.0626959 0.703518 1.00719) weight 0.295598
Frequency (0.0626959 0.703518 1.15108) weight 0.295327
Frequency (0.0626959 0.703518 1.29496) weight 0.29502
Frequency (0.0626959 0.703518 1.43885) weight 0.294679
Frequency (0.0626959 0.703518 1.58273) weight 0.294301
Frequency (0.0626959 0.703518 1.72662) weight 0.29389
Frequency (0.0626959 0.703518 1.8705) weight 0.293443
Frequency (0.0626959 0.703518 2.01439) weight 0.292963
Frequency (0.0626959 0.703518 2.15827) weight 0.292448
Frequency (0.0626959 0.703518 2.30216) weight 0.2919
Frequency (0.0626959 0.703518 2.44604) weight 0.29132
Frequency (0.0626959 0.703518 2.58993) weight 0.290706
Frequency (0.0626959 0.703518 2.73381) weight 0.29006
Frequency (0.0626959 0.703518 2.8777) weight 0.289382
Frequency (0.0626959 0.703518 3.02158) weight 0.288673
Frequency (0.0626959 0.703518 3.16547) weight 0.287933
Frequency (0.0626959 0.703518 3.30935) weight 0.287163
Frequency (0.0626959 0.703518 3.45324) weight 0.286363
Frequency (0.0626959 0.703518 3.59712) weight 0.285533
Frequency (0.0626959 0.703518 3.74101) weight 0.284675
Frequency (0.0626959 0.703518 3.88489) weight 0.283789
Frequency (0.0626959 0.703518 4.02878) weight 0.282875
Frequency (0.0626959 0.703518 4.17266) weight 0.281933
Frequency (0.0626959 0.703518 4.31655) weight 0.280966
Frequency (0.0626959 0.703518 4.46043) weight 0.279972
Frequency (0.0626959 0.703518 4.60432) weight 0.278954
Frequency (0.0626959 0.703518 4.7482) weight 0.277911
Frequency (0.0626959 0.703518 4.89209) weight 0.276843
Frequency (0.0626959 0.80402 0) weight 0.251328
Frequency (0.0626959 0.80402 0.143885) weight 0.251314
Frequency (0.0626959 0.80402 0.28777) weight 0.251275
Frequency (0.0626959 0.80402 0.431655) weight 0.25121
Frequency (0.0626959 0.80402 0.57554) weight 0.251119
Frequency (0.0626959 0.80402 0.719424) weight 0.251001
Frequency (0.0626959 0.80402 0.863309) weight 0.250858
Frequency (0.0626959 0.80402 1.00719) weight 0.250688
Frequency (0.0626959 0.80402 1.15108) weight 0.250493
Frequency (0.0626959 0.80402 1.29496) weight 0.250273
Frequency (0.0626959 0.80402 1.43885) weight 0.250027
Frequency (0.0626959 0.80402 1.58273) weight 0.249755
Frequency (0.0626959 0.80402 1.72662) weight 0.249458
Frequency (0.0626959 0.80402 1.8705) weight 0.249137
Frequency (0.0626959 0.80402 2.01439) weight 0.24879
Frequency (0.0626959 0.80402 2.15827) weight 0.248419
Frequency (0.0626959 0.80402 2.30216) weight 0.248024
Frequency (0.0626959 0.80402 2.44604) weight 0.247604
Frequency (0.0626959 0.80402 2.58993) weight 0.247161
Frequency (0.0626959 0.80402 2.73381) weight 0.246694
Frequency (0.0626959 0.80402 2.8777) weight 0.246203
Frequency (0.0626959 0.80402 3.02158) weight 0.24569
Frequency (0.0626959 0.80402 3.16547) weight 0.245154
Frequency (0.0626959 0.80402 3.30935) weight 0.244595
Frequency (0.0626959 0.80402 3.45324) weight 0.244014
Frequency (0.0626959 0.80402 3.59712) weight 0.243412
Frequency (0.0626959 0.80402 3.74101) weight 0.242788
Frequency (0.0626959 0.80402 3.88489) weight 0.242143
Frequency (0.0626959 0.80402 4.02878) weight 0.241477
Frequency (0.0626959 0.80402 4.17266) weight 0.240791
Frequency (0.0626959 0.80402 4.31655) weight 0.240085
Frequency (0.0626959 0.80402 4.46043) weight 0.239359
Frequency (0.0626959 0.80402 4.60432) weight 0.238614
Frequency (0.0626959 0.80402 4.7482) weight 0.23785
Frequency (0.0626959 0.80402 4.89209) weight 0.237068
Frequency (0.0626959 0.904523 0) weight 0.214329
Frequency (0.0626959 0.904523 0.143885) weight 0.21432
Frequency (0.0626959 0.904523 0.28777) weight 0.214291
Frequency (0.0626959 0.904523 0.431655) weight 0.214244
Frequency (0.0626959 0.904523 0.57554) weight 0.214177
Frequency (0.0626959 0.904523 0.719424) weight 0.214092
Frequency (0.0626959 0.904523 0.863309) weight 0.213987
Frequency (0.0626959 0.904523 1.00719) weight 0.213864
Frequency (0.0626959 0.904523 1.15108) weight 0.213722
Frequency (0.0626959 0.904523 1.29496) weight 0.213562
Frequency (0.0626959 0.904523 1.43885) weight 0.213382
Frequency (0.0626959 0.904523 1.58273) weight 0.213184
Frequency (0.0626959 0.904523 1.72662) weight 0.212968
Frequency (0.0626959 0.904523 1.8705) weight 0.212734
Frequency (0.0626959 0.904523 2.01439) weight 0.212481
Frequency (0.0626959 0.904523 2.15827) weight 0.21221
Frequency (0.0626959 0.904523 2.30216) weight 0.211922
Frequency (0.0626959 0.904523 2.44604) weight 0.211615
Frequency (0.0626959 0.904523 2.58993) weight 0.211291
Frequency (0.0626959 0.904523 2.73381) weight 0.21095
Frequency (0.0626959 0.904523 2.8777) weight 0.210591
Frequency (0.0626959 0.904523 3.02158) weight 0.210216
Frequency (0.0626959 0.904523 3.16547) weight 0.209823
Frequency (0.0626959 0.904523 3.30935) weight 0.209414
Frequency (0.0626959 0.904523 3.45324) weight 0.208988
Frequency (0.0626959 0.904523 3.59712) weight 0.208546
Frequency (0.0626959 0.904523 3.74101) weight 0.208087
Frequency (0.0626959 0.904523 3.88489) weight 0.207613
Frequency (0.0626959 0.904523 4.02878) weight 0.207124
Frequency (0.0626959 0.904523 4.17266) weight 0.206619
Frequency (0.0626959 0.904523 4.31655) weight 0.206099
Frequency (0.0626959 0.904523 4.46043) weight 0.205563
Frequency (0.0626959 0.904523 4.60432) weight 0.205014
Frequency (0.0626959 0.904523 4.7482) weight 0.20445
Frequency (0.0626959 0.904523 4.89209) weight 0.203872
Frequency (0.0626959 1.00503 0) weight 0.184048
Frequency (0.0626959 1.00503 0.143885) weight 0.18404
Frequency (0.0626959 1.00503 0.28777) weight 0.184019
Frequency (0.0626959 1.00503 0.431655) weight 0.183984
Frequency (0.0626959 1.00503 0.57554) weight 0.183935
Frequency (0.0626959 1.00503 0.719424) weight 0.183872
Frequency (0.0626959 1.00503 0.863309) weight 0.183795
Frequency (0.0626959 1.00503 1.00719) weight 0.183705
Frequency (0.0626959 1.00503 1.15108) weight 0.1836
Frequency (0.0626959 1.00503 1.29496) weight 0.183481
Frequency (0.0626959 1.00503 1.43885) weight 0.183349
Frequency (0.0626959 1.00503 1.58273) weight 0.183203
Frequency (0.0626959 1.00503 1.72662) weight 0.183043
Frequency (0.0626959 1.00503 1.8705) weight 0.18287
Frequency (0.0626959 1.00503 2.01439) weight 0.182683
Frequency (0.0626959 1.00503 2.15827) weight 0.182483
Frequency (0.0626959 1.00503 2.30216) weight 0.18227
Frequency (0.0626959 1.00503 2.44604) weight 0.182043
Frequency (0.0626959 1.00503 2.58993) weight 0.181803
Frequency (0.0626959 1.00503 2.73381) weight 0.18155
Frequency (0.0626959 1.00503 2.8777) weight 0.181285
Frequency (0.0626959 1.00503 3.02158) weight 0.181006
Frequency (0.0626959 1.00503 3.16547) weight 0.180715
Frequency (0.0626959 1.00503 3.30935) weight 0.180411
Frequency (0.0626959 1.00503 3.45324) weight 0.180095
Frequency (0.0626959 1.00503 3.59712) weight 0.179766
Frequency (0.0626959 1.00503 3.74101) weight 0.179426
Frequency (0.0626959 1.00503 3.88489) weight 0.179073
Frequency (0.0626959 1.00503 4.02878) weight 0.178709
Frequency (0.0626959 1.00503 4.17266) weight 0.178333
Frequency (0.0626959 1.00503 4.31655) weight 0.177945
Frequency (0.0626959 1.00503 4.46043) weight 0.177546
Frequency (0.0626959 1.00503 4.60432) weight 0.177136
Frequency (0.0626959 1.00503 4.7482) weight 0.176715
Frequency (0.0626959 1.00503 4.89209) weight 0.176283
Frequency (0.0626959 1.10553 0) weight 0.159189
Frequency (0.0626959 1.10553 0.143885) weight 0.159184
Frequency (0.0626959 1.10553 0.28777) weight 0.159168
Frequency (0.0626959 1.10553 0.431655) weight 0.159142
Frequency (0.0626959 1.10553 0.57554) weight 0.159105
Frequency (0.0626959 1.10553 0.719424) weight 0.159058
Frequency (0.0626959 1.10553 0.863309) weight 0.159
Frequency (0.0626959 1.10553 1.00719) weight 0.158932
Frequency (0.0626959 1.10553 1.15108) weight 0.158854
Frequency (0.0626959 1.10553 1.29496) weight 0.158765
Frequency (0.0626959 1.10553 1.43885) weight 0.158666
Frequency (0.0626959 1.10553 1.58273) weight 0.158557
Frequency (0.0626959 1.10553 1.72662) weight 0.158437
Frequency (0.0626959 1.10553 1.8705) weight 0.158307
Frequency (0.0626959 1.10553 2.01439) weight 0.158167
Frequency (0.0626959 1.10553 2.15827) weight 0.158017
Frequency (0.0626959 1.10553 2.30216) weight 0.157857
Frequency (0.0626959 1.10553 2.44604) weight 0.157687
Frequency (0.0626959 1.10553 2.58993) weight 0.157507
Frequency (0.0626959 1.10553 2.73381) weight 0.157317
Frequency (0.0626959 1.10553 2.8777) weight 0.157118
Frequency (0.0626959 1.10553 3.02158) weight 0.156908
Frequency (0.0626959 1.10553 3.16547) weight 0.15669
Frequency (0.0626959 1.10553 3.30935) weight 0.156461
Frequency (0.0626959 1.10553 3.45324) weight 0.156223
Frequency (0.0626959 1.10553 3.59712) weight 0.155976
Frequency (0.0626959 1.10553 3.74101) weight 0.15572
Frequency (0.0626959 1.10553 3.88489) weight 0.155454
Frequency (0.0626959 1.10553 4.02878) weight 0.155179
Frequency (0.0626959 1.10553 4.17266) weight 0.154896
Frequency (0.0626959 1.10553 4.31655) weight 0.154603
Frequency (0.0626959 1.10553 4.46043) weight 0.154302
Frequency (0.0626959 1.10553 4.60432) weight 0.153992
Frequency (0.0626959 1.10553 4.7482) weight 0.153674
Frequency (0.0626959 1.10553 4.89209) weight 0.153347
Frequency (0.0626959 1.20603 0) weight 0.138675
Frequency (0.0626959 1.20603 0.143885) weight 0.138671
Frequency (0.0626959 1.20603 0.28777) weight 0.138659
Frequency (0.0626959 1.20603 0.431655) weight 0.138639
Frequency (0.0626959 1.20603 0.57554) weight 0.138611
Frequency (0.0626959 1.20603 0.719424) weight 0.138575
Frequency (0.0626959 1.20603 0.863309) weight 0.138532
Frequency (0.0626959 1.20603 1.00719) weight 0.13848
Frequency (0.0626959 1.20603 1.15108) weight 0.138421
Frequency (0.0626959 1.20603 1.29496) weight 0.138353
Frequency (0.0626959 1.20603 1.43885) weight 0.138278
Frequency (0.0626959 1.20603 1.58273) weight 0.138195
Frequency (0.0626959 1.20603 1.72662) weight 0.138104
Frequency (0.0626959 1.20603 1.8705) weight 0.138005
Frequency (0.0626959 1.20603 2.01439) weight 0.137899
Frequency (0.0626959 1.20603 2.15827) weight 0.137785
Frequency (0.0626959 1.20603 2.30216) weight 0.137663
Frequency (0.0626959 1.20603 2.44604) weight 0.137534
Frequency (0.0626959 1.20603 2.58993) weight 0.137397
Frequency (0.0626959 1.20603 2.73381) weight 0.137252
Frequency (0.0626959 1.20603 2.8777) weight 0.1371
Frequency (0.0626959 1.20603 3.02158) weight 0.136941
Frequency (0.0626959 1.20603 3.16547) weight 0.136774
Frequency (0.0626959 1.20603 3.30935) weight 0.1366
Frequency (0.0626959 1.20603 3.45324) weight 0.136419
Frequency (0.0626959 1.20603 3.59712) weight 0.13623
Frequency (0.0626959 1.20603 3.74101) weight 0.136035
Frequency (0.0626959 1.20603 3.88489) weight 0.135832
Frequency (0.0626959 1.20603 4.02878) weight 0.135622
Frequency (0.0626959 1.20603 4.17266) weight 0.135406
Frequency (0.0626959 1.20603 4.31655) weight 0.135182
Frequency (0.0626959 1.20603 4.46043) weight 0.134952
Frequency (0.0626959 1.20603 4.60432) weight 0.134714
Frequency (0.0626959 1.20603 4.7482) weight 0.134471
Frequency (0.0626959 1.20603 4.89209) weight 0.13422
Frequency (0.0626959 1.30653 0) weight 0.121637
Frequency (0.0626959 1.30653 0.143885) weight 0.121634
Frequency (0.0626959 1.30653 0.28777) weight 0.121625
Frequency (0.0626959 1.30653 0.431655) weight 0.121609
Frequency (0.0626959 1.30653 0.57554) weight 0.121588
Frequency (0.0626959 1.30653 0.719424) weight 0.12156
Frequency (0.0626959 1.30653 0.863309) weight 0.121527
Frequency (0.0626959 1.30653 1.00719) weight 0.121487
Frequency (0.0626959 1.30653 1.15108) weight 0.121441
Frequency (0.0626959 1.30653 1.29496) weight 0.121389
Frequency (0.0626959 1.30653 1.43885) weight 0.121331
Frequency (0.0626959 1.30653 1.58273) weight 0.121267
Frequency (0.0626959 1.30653 1.72662) weight 0.121197
Frequency (0.0626959 1.30653 1.8705) weight 0.121121
Frequency (0.0626959 1.30653 2.01439) weight 0.121039
Frequency (0.0626959 1.30653 2.15827) weight 0.120952
Frequency (0.0626959 1.30653 2.30216) weight 0.120858
Frequency (0.0626959 1.30653 2.44604) weight 0.120758
Frequency (0.0626959 1.30653 2.58993) weight 0.120653
Frequency (0.0626959 1.30653 2.73381) weight 0.120541
Frequency (0.0626959 1.30653 2.8777) weight 0.120424
Frequency (0.0626959 1.30653 3.02158) weight 0.120301
Frequency (0.0626959 1.30653 3.16547) weight 0.120172
Frequency (0.0626959 1.30653 3.30935) weight 0.120038
Frequency (0.0626959 1.30653 3.45324) weight 0.119898
Frequency (0.0626959 1.30653 3.59712) weight 0.119752
Frequency (0.0626959 1.30653 3.74101) weight 0.119601
Frequency (0.0626959 1.30653 3.88489) weight 0.119444
Frequency (0.0626959 1.30653 4.02878) weight 0.119282
Frequency (0.0626959 1.30653 4.17266) weight 0.119114
Frequency (0.0626959 1.30653 4.31655) weight 0.118941
Frequency (0.0626959 1.30653 4.46043) weight 0.118763
Frequency (0.0626959 1.30653 4.60432) weight 0.118579
Frequency (0.0626959 1.30653 4.7482) weight 0.11839
Frequency (0.0626959 1.30653 4.89209) weight 0.118196
Frequency (0.0626959 1.40704 0) weight 0.107388
Frequency (0.0626959 1.40704 0.143885) weight 0.107385
Frequency (0.0626959 1.40704 0.28777) weight 0.107378
Frequency (0.0626959 1.40704 0.431655) weight 0.107366
Frequency (0.0626959 1.40704 0.57554) weight 0.107349
Frequency (0.0626959 1.40704 0.719424) weight 0.107328
Frequency (0.0626959 1.40704 0.863309) weight 0.107302
Frequency (0.0626959 1.40704 1.00719) weight 0.107271
Frequency (0.0626959 1.40704 1.15108) weight 0.107235
Frequency (0.0626959 1.40704 1.29496) weight 0.107194
Frequency (0.0626959 1.40704 1.43885) weight 0.107149
Frequency (0.0626959 1.40704 1.58273) weight 0.107099
Frequency (0.0626959 1.40704 1.72662) weight 0.107045
Frequency (0.0626959 1.40704 1.8705) weight 0.106986
Frequency (0.0626959 1.40704 2.01439) weight 0.106922
Frequency (0.0626959 1.40704 2.15827) weight 0.106853
Frequency (0.0626959 1.40704 2.30216) weight 0.10678
Frequency (0.0626959 1.40704 2.44604) weight 0.106702
Frequency (0.0626959 1.40704 2.58993) weight 0.10662
Frequency (0.0626959 1.40704 2.73381) weight 0.106532
Frequency (0.0626959 1.40704 2.8777) weight 0.106441
Frequency (0.0626959 1.40704 3.02158) weight 0.106345
Frequency (0.0626959 1.40704 3.16547) weight 0.106244
Frequency (0.0626959 1.40704 3.30935) weight 0.106139
Frequency (0.0626959 1.40704 3.45324) weight 0.10603
Frequency (0.0626959 1.40704 3.59712) weight 0.105916
Frequency (0.0626959 1.40704 3.74101) weight 0.105797
Frequency (0.0626959 1.40704 3.88489) weight 0.105675
Frequency (0.0626959 1.40704 4.02878) weight 0.105548
Frequency (0.0626959 1.40704 4.17266) weight 0.105417
Frequency (0.0626959 1.40704 4.31655) weight 0.105281
Frequency (0.0626959 1.40704 4.46043) weight 0.105141
Frequency (0.0626959 1.40704 4.60432) weight 0.104997
Frequency (0.0626959 1.40704 4.7482) weight 0.104849
Frequency (0.0626959 1.40704 4.89209) weight 0.104697
Frequency (0.0626959 1.50754 0) weight 0.0953856
Frequency (0.0626959 1.50754 0.143885) weight 0.0953838
Frequency (0.0626959 1.50754 0.28777) weight 0.0953781
Frequency (0.0626959 1.50754 0.431655) weight 0.0953687
Frequency (0.0626959 1.50754 0.57554) weight 0.0953555
Frequency (0.0626959 1.50754 0.719424) weight 0.0953386
Frequency (0.0626959 1.50754 0.863309) weight 0.0953179
Frequency (0.0626959 1.50754 1.00719) weight 0.0952934
Frequency (0.0626959 1.50754 1.15108) weight 0.0952652
Frequency (0.0626959 1.50754 1.29496) weight 0.0952333
Frequency (0.0626959 1.50754 1.43885) weight 0.0951977
Frequency (0.0626959 1.50754 1.58273) weight 0.0951583
Frequency (0.0626959 1.50754 1.72662) weight 0.0951152
Frequency (0.0626959 1.50754 1.8705) weight 0.0950684
Frequency (0.0626959 1.50754 2.01439) weight 0.0950179
Frequency (0.0626959 1.50754 2.15827) weight 0.0949637
Frequency (0.0626959 1.50754 2.30216) weight 0.0949059
Frequency (0.0626959 1.50754 2.44604) weight 0.0948444
Frequency (0.0626959 1.50754 2.58993) weight 0.0947792
Frequency (0.0626959 1.50754 2.73381) weight 0.0947105
Frequency (0.0626959 1.50754 2.8777) weight 0.0946381
Frequency (0.0626959 1.50754 3.02158) weight 0.0945621
Frequency (0.0626959 1.50754 3.16547) weight 0.0944826
Frequency (0.0626959 1.50754 3.30935) weight 0.0943995
Frequency (0.0626959 1.50754 3.45324) weight 0.0943129
Frequency (0.0626959 1.50754 3.59712) weight 0.0942227
Frequency (0.0626959 1.50754 3.74101) weight 0.0941291
Frequency (0.0626959 1.50754 3.88489) weight 0.094032
Frequency (0.0626959 1.50754 4.02878) weight 0.0939314
Frequency (0.0626959 1.50754 4.17266) weight 0.0938274
Frequency (0.0626959 1.50754 4.31655) weight 0.09372
Frequency (0.0626959 1.50754 4.46043) weight 0.0936092
Frequency (0.0626959 1.50754 4.60432) weight 0.093495
Frequency (0.0626959 1.50754 4.7482) weight 0.0933776
Frequency (0.0626959 1.50754 4.89209) weight 0.0932568
Frequency (0.0626959 1.60804 0) weight 0.0852061
Frequency (0.0626959 1.60804 0.143885) weight 0.0852046
Frequency (0.0626959 1.60804 0.28777) weight 0.0852001
Frequency (0.0626959 1.60804 0.431655) weight 0.0851926
Frequency (0.0626959 1.60804 0.57554) weight 0.085182
Frequency (0.0626959 1.60804 0.719424) weight 0.0851685
Frequency (0.0626959 1.60804 0.863309) weight 0.085152
Frequency (0.0626959 1.60804 1.00719) weight 0.0851325
Frequency (0.0626959 1.60804 1.15108) weight 0.08511
Frequency (0.0626959 1.60804 1.29496) weight 0.0850845
Frequency (0.0626959 1.60804 1.43885) weight 0.085056
Frequency (0.0626959 1.60804 1.58273) weight 0.0850246
Frequency (0.0626959 1.60804 1.72662) weight 0.0849902
Frequency (0.0626959 1.60804 1.8705) weight 0.0849528
Frequency (0.0626959 1.60804 2.01439) weight 0.0849125
Frequency (0.0626959 1.60804 2.15827) weight 0.0848692
Frequency (0.0626959 1.60804 2.30216) weight 0.084823
Frequency (0.0626959 1.60804 2.44604) weight 0.0847739
Frequency (0.0626959 1.60804 2.58993) weight 0.0847219
Frequency (0.0626959 1.60804 2.73381) weight 0.0846669
Frequency (0.0626959 1.60804 2.8777) weight 0.0846091
Frequency (0.0626959 1.60804 3.02158) weight 0.0845484
Frequency (0.0626959 1.60804 3.16547) weight 0.0844848
Frequency (0.0626959 1.60804 3.30935) weight 0.0844183
Frequency (0.0626959 1.60804 3.45324) weight 0.084349
Frequency (0.0626959 1.60804 3.59712) weight 0.0842769
Frequency (0.0626959 1.60804 3.74101) weight 0.084202
Frequency (0.0626959 1.60804 3.88489) weight 0.0841243
Frequency (0.0626959 1.60804 4.02878) weight 0.0840438
Frequency (0.0626959 1.60804 4.17266) weight 0.0839605
Frequency (0.0626959 1.60804 4.31655) weight 0.0838745
Frequency (0.0626959 1.60804 4.46043) weight 0.0837857
Frequency (0.0626959 1.60804 4.60432) weight 0.0836943
Frequency (0.0626959 1.60804 4.7482) weight 0.0836001
Frequency (0.0626959 1.60804 4.89209) weight 0.0835033
Frequency (0.0626959 1.70854 0) weight 0.0765137
Frequency (0.0626959 1.70854 0.143885) weight 0.0765125
Frequency (0.0626959 1.70854 0.28777) weight 0.0765089
Frequency (0.0626959 1.70854 0.431655) weight 0.0765028
Frequency (0.0626959 1.70854 0.57554) weight 0.0764943
Frequency (0.0626959 1.70854 0.719424) weight 0.0764834
Frequency (0.0626959 1.70854 0.863309) weight 0.0764701
Frequency (0.0626959 1.70854 1.00719) weight 0.0764544
Frequency (0.0626959 1.70854 1.15108) weight 0.0764362
Frequency (0.0626959 1.70854 1.29496) weight 0.0764157
Frequency (0.0626959 1.70854 1.43885) weight 0.0763927
Frequency (0.0626959 1.70854 1.58273) weight 0.0763674
Frequency (0.0626959 1.70854 1.72662) weight 0.0763396
Frequency (0.0626959 1.70854 1.8705) weight 0.0763094
Frequency (0.0626959 1.70854 2.01439) weight 0.0762769
Frequency (0.0626959 1.70854 2.15827) weight 0.076242
Frequency (0.0626959 1.70854 2.30216) weight 0.0762047
Frequency (0.0626959 1.70854 2.44604) weight 0.076165
Frequency (0.0626959 1.70854 2.58993) weight 0.076123
Frequency (0.0626959 1.70854 2.73381) weight 0.0760787
Frequency (0.0626959 1.70854 2.8777) weight 0.076032
Frequency (0.0626959 1.70854 3.02158) weight 0.0759829
Frequency (0.0626959 1.70854 3.16547) weight 0.0759316
Frequency (0.0626959 1.70854 3.30935) weight 0.0758779
Frequency (0.0626959 1.70854 3.45324) weight 0.0758219
Frequency (0.0626959 1.70854 3.59712) weight 0.0757636
Frequency (0.0626959 1.70854 3.74101) weight 0.0757031
Frequency (0.0626959 1.70854 3.88489) weight 0.0756402
Frequency (0.0626959 1.70854 4.02878) weight 0.0755752
Frequency (0.0626959 1.70854 4.17266) weight 0.0755078
Frequency (0.0626959 1.70854 4.31655) weight 0.0754382
Frequency (0.0626959 1.70854 4.46043) weight 0.0753664
Frequency (0.0626959 1.70854 4.60432) weight 0.0752924
Frequency (0.0626959 1.70854 4.7482) weight 0.0752162
Frequency (0.0626959 1.70854 4.89209) weight 0.0751378
Frequency (0.0626959 1.80905 0) weight 0.0690433
Frequency (0.0626959 1.80905 0.143885) weight 0.0690424
Frequency (0.0626959 1.80905 0.28777) weight 0.0690394
Frequency (0.0626959 1.80905 0.431655) weight 0.0690345
Frequency (0.0626959 1.80905 0.57554) weight 0.0690276
Frequency (0.0626959 1.80905 0.719424) weight 0.0690187
Frequency (0.0626959 1.80905 0.863309) weight 0.0690078
Frequency (0.0626959 1.80905 1.00719) weight 0.068995
Frequency (0.0626959 1.80905 1.15108) weight 0.0689802
Frequency (0.0626959 1.80905 1.29496) weight 0.0689635
Frequency (0.0626959 1.80905 1.43885) weight 0.0689448
Frequency (0.0626959 1.80905 1.58273) weight 0.0689241
Frequency (0.0626959 1.80905 1.72662) weight 0.0689015
Frequency (0.0626959 1.80905 1.8705) weight 0.068877
Frequency (0.0626959 1.80905 2.01439) weight 0.0688504
Frequency (0.0626959 1.80905 2.15827) weight 0.068822
Frequency (0.0626959 1.80905 2.30216) weight 0.0687916
Frequency (0.0626959 1.80905 2.44604) weight 0.0687593
Frequency (0.0626959 1.80905 2.58993) weight 0.0687251
Frequency (0.0626959 1.80905 2.73381) weight 0.0686889
Frequency (0.0626959 1.80905 2.8777) weight 0.0686508
Frequency (0.0626959 1.80905 3.02158) weight 0.0686108
Frequency (0.0626959 1.80905 3.16547) weight 0.068569
Frequency (0.0626959 1.80905 3.30935) weight 0.0685252
Frequency (0.0626959 1.80905 3.45324) weight 0.0684795
Frequency (0.0626959 1.80905 3.59712) weight 0.068432
Frequency (0.0626959 1.80905 3.74101) weight 0.0683826
Frequency (0.0626959 1.80905 3.88489) weight 0.0683313
Frequency (0.0626959 1.80905 4.02878) weight 0.0682782
Frequency (0.0626959 1.80905 4.17266) weight 0.0682232
Frequency (0.0626959 1.80905 4.31655) weight 0.0681664
Frequency (0.0626959 1.80905 4.46043) weight 0.0681078
Frequency (0.0626959 1.80905 4.60432) weight 0.0680473
Frequency (0.0626959 1.80905 4.7482) weight 0.0679851
Frequency (0.0626959 1.80905 4.89209) weight 0.067921
Frequency (0.0626959 1.90955 0) weight 0.0625838
Frequency (0.0626959 1.90955 0.143885) weight 0.062583
[...]
Flux out = 0.991926

Adaptive time = 249772
DILUPBiCGStab:  Solving for c, Initial residual = 1.59455e-05, Final residual = 4.39247e-12, No Iterations 2
Total mass = 1066.12
Flux out = 0.991927

Adaptive time = 249787
DILUPBiCGStab:  Solving for c, Initial residual = 1.59446e-05, Final residual = 4.39181e-12, No Iterations 2
Total mass = 1066.12
Flux out = 0.991928

Adaptive time = 249802
DILUPBiCGStab:  Solving for c, Initial residual = 1.59436e-05, Final residual = 4.39114e-12, No Iterations 2
Total mass = 1066.13
Flux out = 0.991929

Adaptive time = 249817
DILUPBiCGStab:  Solving for c, Initial residual = 1.59427e-05, Final residual = 4.39048e-12, No Iterations 2
Total mass = 1066.13
Flux out = 0.991929

Adaptive time = 249831
DILUPBiCGStab:  Solving for c, Initial residual = 1.59417e-05, Final residual = 4.38982e-12, No Iterations 2
Total mass = 1066.13
Flux out = 0.99193

Adaptive time = 249846
DILUPBiCGStab:  Solving for c, Initial residual = 1.59408e-05, Final residual = 4.38915e-12, No Iterations 2
Total mass = 1066.14
Flux out = 0.991931

Adaptive time = 249861
DILUPBiCGStab:  Solving for c, Initial residual = 1.59398e-05, Final residual = 4.38849e-12, No Iterations 2
Total mass = 1066.14
Flux out = 0.991931

Adaptive time = 249875
DILUPBiCGStab:  Solving for c, Initial residual = 1.59389e-05, Final residual = 4.38783e-12, No Iterations 2
Total mass = 1066.14
Flux out = 0.991932

Adaptive time = 249890
DILUPBiCGStab:  Solving for c, Initial residual = 1.5938e-05, Final residual = 4.38716e-12, No Iterations 2
Total mass = 1066.14
Flux out = 0.991933

Adaptive time = 249905
DILUPBiCGStab:  Solving for c, Initial residual = 1.5937e-05, Final residual = 4.3865e-12, No Iterations 2
Total mass = 1066.15
Flux out = 0.991933

Adaptive time = 249919
DILUPBiCGStab:  Solving for c, Initial residual = 1.59361e-05, Final residual = 4.38584e-12, No Iterations 2
Total mass = 1066.15
Flux out = 0.991934

Adaptive time = 249934
DILUPBiCGStab:  Solving for c, Initial residual = 1.59351e-05, Final residual = 4.38517e-12, No Iterations 2
Total mass = 1066.15
Flux out = 0.991935

Adaptive time = 249949
DILUPBiCGStab:  Solving for c, Initial residual = 1.59342e-05, Final residual = 4.38451e-12, No Iterations 2
Total mass = 1066.16
Flux out = 0.991935

Adaptive time = 249963
DILUPBiCGStab:  Solving for c, Initial residual = 1.59332e-05, Final residual = 4.38385e-12, No Iterations 2
Total mass = 1066.16
Flux out = 0.991936

Adaptive time = 249978
DILUPBiCGStab:  Solving for c, Initial residual = 1.59323e-05, Final residual = 4.38318e-12, No Iterations 2
Total mass = 1066.16
Flux out = 0.991937

Adaptive time = 249993
DILUPBiCGStab:  Solving for c, Initial residual = 1.59313e-05, Final residual = 4.38252e-12, No Iterations 2
Total mass = 1066.16
Flux out = 0.991937

Adaptive time = 250007
DILUPBiCGStab:  Solving for c, Initial residual = 1.59304e-05, Final residual = 4.38186e-12, No Iterations 2
Total mass = 1066.17
Flux out = 0.991938

Adaptive time = 250022
DILUPBiCGStab:  Solving for c, Initial residual = 1.59295e-05, Final residual = 4.3812e-12, No Iterations 2
Total mass = 1066.17
Flux out = 0.991939

Adaptive time = 250037
DILUPBiCGStab:  Solving for c, Initial residual = 1.59285e-05, Final residual = 4.38053e-12, No Iterations 2
Total mass = 1066.17
Flux out = 0.991939

Adaptive time = 250051
DILUPBiCGStab:  Solving for c, Initial residual = 1.59276e-05, Final residual = 4.37987e-12, No Iterations 2
Total mass = 1066.18
Flux out = 0.99194

Adaptive time = 250066
DILUPBiCGStab:  Solving for c, Initial residual = 1.59266e-05, Final residual = 4.37921e-12, No Iterations 2
Total mass = 1066.18
Flux out = 0.991941

Adaptive time = 250081
DILUPBiCGStab:  Solving for c, Initial residual = 1.59257e-05, Final residual = 4.37855e-12, No Iterations 2
Total mass = 1066.18
Flux out = 0.991942

Adaptive time = 250095
DILUPBiCGStab:  Solving for c, Initial residual = 1.59247e-05, Final residual = 4.37788e-12, No Iterations 2
Total mass = 1066.18
Flux out = 0.991942

Adaptive time = 250110
DILUPBiCGStab:  Solving for c, Initial residual = 1.59238e-05, Final residual = 4.37722e-12, No Iterations 2
Total mass = 1066.19
Flux out = 0.991943

Adaptive time = 250125
DILUPBiCGStab:  Solving for c, Initial residual = 1.59229e-05, Final residual = 4.37656e-12, No Iterations 2
Total mass = 1066.19
Flux out = 0.991944

Adaptive time = 250139
DILUPBiCGStab:  Solving for c, Initial residual = 1.59219e-05, Final residual = 4.3759e-12, No Iterations 2
Total mass = 1066.19
Flux out = 0.991944

Adaptive time = 250154
DILUPBiCGStab:  Solving for c, Initial residual = 1.5921e-05, Final residual = 4.37524e-12, No Iterations 2
Total mass = 1066.19
Flux out = 0.991945

Adaptive time = 250169
DILUPBiCGStab:  Solving for c, Initial residual = 1.592e-05, Final residual = 4.37458e-12, No Iterations 2
Total mass = 1066.2
Flux out = 0.991946

Adaptive time = 250183
DILUPBiCGStab:  Solving for c, Initial residual = 1.59191e-05, Final residual = 4.37391e-12, No Iterations 2
Total mass = 1066.2
Flux out = 0.991946

Adaptive time = 250198
DILUPBiCGStab:  Solving for c, Initial residual = 1.59181e-05, Final residual = 4.37325e-12, No Iterations 2
Total mass = 1066.2
Flux out = 0.991947

Adaptive time = 250213
DILUPBiCGStab:  Solving for c, Initial residual = 1.59172e-05, Final residual = 4.37259e-12, No Iterations 2
Total mass = 1066.21
Flux out = 0.991948

Adaptive time = 250228
DILUPBiCGStab:  Solving for c, Initial residual = 1.59163e-05, Final residual = 4.37193e-12, No Iterations 2
Total mass = 1066.21
Flux out = 0.991948

Adaptive time = 250242
DILUPBiCGStab:  Solving for c, Initial residual = 1.59153e-05, Final residual = 4.37127e-12, No Iterations 2
Total mass = 1066.21
Flux out = 0.991949

Adaptive time = 250257
DILUPBiCGStab:  Solving for c, Initial residual = 1.59144e-05, Final residual = 4.37061e-12, No Iterations 2
Total mass = 1066.21
Flux out = 0.99195

Adaptive time = 250272
DILUPBiCGStab:  Solving for c, Initial residual = 1.59134e-05, Final residual = 4.36995e-12, No Iterations 2
Total mass = 1066.22
Flux out = 0.99195

Adaptive time = 250286
DILUPBiCGStab:  Solving for c, Initial residual = 1.59125e-05, Final residual = 4.36929e-12, No Iterations 2
Total mass = 1066.22
Flux out = 0.991951

Adaptive time = 250301
DILUPBiCGStab:  Solving for c, Initial residual = 1.59116e-05, Final residual = 4.36863e-12, No Iterations 2
Total mass = 1066.22
Flux out = 0.991952

Adaptive time = 250316
DILUPBiCGStab:  Solving for c, Initial residual = 1.59106e-05, Final residual = 4.36797e-12, No Iterations 2
Total mass = 1066.23
Flux out = 0.991952

Adaptive time = 250330
DILUPBiCGStab:  Solving for c, Initial residual = 1.59097e-05, Final residual = 4.36731e-12, No Iterations 2
Total mass = 1066.23
Flux out = 0.991953

Adaptive time = 250345
DILUPBiCGStab:  Solving for c, Initial residual = 1.59087e-05, Final residual = 4.36665e-12, No Iterations 2
Total mass = 1066.23
Flux out = 0.991954

Adaptive time = 250360
DILUPBiCGStab:  Solving for c, Initial residual = 1.59078e-05, Final residual = 4.36599e-12, No Iterations 2
Total mass = 1066.23
Flux out = 0.991955

Adaptive time = 250374
DILUPBiCGStab:  Solving for c, Initial residual = 1.59068e-05, Final residual = 4.36533e-12, No Iterations 2
Total mass = 1066.24
Flux out = 0.991955

Adaptive time = 250389
DILUPBiCGStab:  Solving for c, Initial residual = 1.59059e-05, Final residual = 4.36467e-12, No Iterations 2
Total mass = 1066.24
Flux out = 0.991956

Adaptive time = 250404
DILUPBiCGStab:  Solving for c, Initial residual = 1.5905e-05, Final residual = 4.36401e-12, No Iterations 2
Total mass = 1066.24
Flux out = 0.991957

Adaptive time = 250418
DILUPBiCGStab:  Solving for c, Initial residual = 1.5904e-05, Final residual = 4.36335e-12, No Iterations 2
Total mass = 1066.25
Flux out = 0.991957

Adaptive time = 250433
DILUPBiCGStab:  Solving for c, Initial residual = 1.59031e-05, Final residual = 4.36269e-12, No Iterations 2
Total mass = 1066.25
Flux out = 0.991958

Adaptive time = 250448
DILUPBiCGStab:  Solving for c, Initial residual = 1.59021e-05, Final residual = 4.36203e-12, No Iterations 2
Total mass = 1066.25
Flux out = 0.991959

Adaptive time = 250462
DILUPBiCGStab:  Solving for c, Initial residual = 1.59012e-05, Final residual = 4.36137e-12, No Iterations 2
Total mass = 1066.25
Flux out = 0.991959

Adaptive time = 250477
DILUPBiCGStab:  Solving for c, Initial residual = 1.59003e-05, Final residual = 4.36071e-12, No Iterations 2
Total mass = 1066.26
Flux out = 0.99196

Adaptive time = 250492
DILUPBiCGStab:  Solving for c, Initial residual = 1.58993e-05, Final residual = 4.36005e-12, No Iterations 2
Total mass = 1066.26
Flux out = 0.991961

Adaptive time = 250506
DILUPBiCGStab:  Solving for c, Initial residual = 1.58984e-05, Final residual = 4.35939e-12, No Iterations 2
Total mass = 1066.26
Flux out = 0.991961

Adaptive time = 250521
DILUPBiCGStab:  Solving for c, Initial residual = 1.58974e-05, Final residual = 4.35873e-12, No Iterations 2
Total mass = 1066.26
Flux out = 0.991962

Adaptive time = 250536
DILUPBiCGStab:  Solving for c, Initial residual = 1.58965e-05, Final residual = 4.35807e-12, No Iterations 2
Total mass = 1066.27
Flux out = 0.991963

Adaptive time = 250550
DILUPBiCGStab:  Solving for c, Initial residual = 1.58956e-05, Final residual = 4.35741e-12, No Iterations 2
Total mass = 1066.27
Flux out = 0.991963

Adaptive time = 250565
DILUPBiCGStab:  Solving for c, Initial residual = 1.58946e-05, Final residual = 4.35675e-12, No Iterations 2
Total mass = 1066.27
Flux out = 0.991964

Adaptive time = 250580
DILUPBiCGStab:  Solving for c, Initial residual = 1.58937e-05, Final residual = 4.3561e-12, No Iterations 2
Total mass = 1066.28
Flux out = 0.991965

Adaptive time = 250594
DILUPBiCGStab:  Solving for c, Initial residual = 1.58927e-05, Final residual = 4.35544e-12, No Iterations 2
Total mass = 1066.28
Flux out = 0.991965

Adaptive time = 250609
DILUPBiCGStab:  Solving for c, Initial residual = 1.58918e-05, Final residual = 4.35478e-12, No Iterations 2
Total mass = 1066.28
Flux out = 0.991966

Adaptive time = 250624
DILUPBiCGStab:  Solving for c, Initial residual = 1.58909e-05, Final residual = 4.35412e-12, No Iterations 2
Total mass = 1066.28
Flux out = 0.991967

Adaptive time = 250638
DILUPBiCGStab:  Solving for c, Initial residual = 1.58899e-05, Final residual = 4.35346e-12, No Iterations 2
Total mass = 1066.29
Flux out = 0.991967

Adaptive time = 250653
DILUPBiCGStab:  Solving for c, Initial residual = 1.5889e-05, Final residual = 4.3528e-12, No Iterations 2
Total mass = 1066.29
Flux out = 0.991968

Adaptive time = 250668
DILUPBiCGStab:  Solving for c, Initial residual = 1.5888e-05, Final residual = 4.35215e-12, No Iterations 2
Total mass = 1066.29
Flux out = 0.991969

Adaptive time = 250683
DILUPBiCGStab:  Solving for c, Initial residual = 1.58871e-05, Final residual = 4.35149e-12, No Iterations 2
Total mass = 1066.3
Flux out = 0.99197

Adaptive time = 250697
DILUPBiCGStab:  Solving for c, Initial residual = 1.58862e-05, Final residual = 4.35083e-12, No Iterations 2
Total mass = 1066.3
Flux out = 0.99197

Adaptive time = 250712
DILUPBiCGStab:  Solving for c, Initial residual = 1.58852e-05, Final residual = 4.35017e-12, No Iterations 2
Total mass = 1066.3
Flux out = 0.991971

Adaptive time = 250727
DILUPBiCGStab:  Solving for c, Initial residual = 1.58843e-05, Final residual = 4.34951e-12, No Iterations 2
Total mass = 1066.3
Flux out = 0.991972

Adaptive time = 250741
DILUPBiCGStab:  Solving for c, Initial residual = 1.58833e-05, Final residual = 4.34886e-12, No Iterations 2
Total mass = 1066.31
Flux out = 0.991972

Adaptive time = 250756
DILUPBiCGStab:  Solving for c, Initial residual = 1.58824e-05, Final residual = 4.3482e-12, No Iterations 2
Total mass = 1066.31
Flux out = 0.991973

Adaptive time = 250771
DILUPBiCGStab:  Solving for c, Initial residual = 1.58815e-05, Final residual = 4.34754e-12, No Iterations 2
Total mass = 1066.31
Flux out = 0.991974

Adaptive time = 250785
DILUPBiCGStab:  Solving for c, Initial residual = 1.58805e-05, Final residual = 4.34688e-12, No Iterations 2
Total mass = 1066.31
Flux out = 0.991974

Adaptive time = 250800
DILUPBiCGStab:  Solving for c, Initial residual = 1.58796e-05, Final residual = 4.34623e-12, No Iterations 2
Total mass = 1066.32
Flux out = 0.991975

Adaptive time = 250815
DILUPBiCGStab:  Solving for c, Initial residual = 1.58787e-05, Final residual = 4.34557e-12, No Iterations 2
Total mass = 1066.32
Flux out = 0.991976

Adaptive time = 250829
DILUPBiCGStab:  Solving for c, Initial residual = 1.58777e-05, Final residual = 4.34491e-12, No Iterations 2
Total mass = 1066.32
Flux out = 0.991976

Adaptive time = 250844
DILUPBiCGStab:  Solving for c, Initial residual = 1.58768e-05, Final residual = 4.34426e-12, No Iterations 2
Total mass = 1066.33
Flux out = 0.991977

Adaptive time = 250859
DILUPBiCGStab:  Solving for c, Initial residual = 1.58758e-05, Final residual = 4.3436e-12, No Iterations 2
Total mass = 1066.33
Flux out = 0.991978

Adaptive time = 250873
DILUPBiCGStab:  Solving for c, Initial residual = 1.58749e-05, Final residual = 4.34294e-12, No Iterations 2
Total mass = 1066.33
Flux out = 0.991978

Adaptive time = 250888
DILUPBiCGStab:  Solving for c, Initial residual = 1.5874e-05, Final residual = 4.34229e-12, No Iterations 2
Total mass = 1066.33
Flux out = 0.991979

Adaptive time = 250903
DILUPBiCGStab:  Solving for c, Initial residual = 1.5873e-05, Final residual = 4.34163e-12, No Iterations 2
Total mass = 1066.34
Flux out = 0.99198

Adaptive time = 250917
DILUPBiCGStab:  Solving for c, Initial residual = 1.58721e-05, Final residual = 4.34097e-12, No Iterations 2
Total mass = 1066.34
Flux out = 0.99198

Adaptive time = 250932
DILUPBiCGStab:  Solving for c, Initial residual = 1.58712e-05, Final residual = 4.34032e-12, No Iterations 2
Total mass = 1066.34
Flux out = 0.991981

Adaptive time = 250947
DILUPBiCGStab:  Solving for c, Initial residual = 1.58702e-05, Final residual = 4.33966e-12, No Iterations 2
Total mass = 1066.35
Flux out = 0.991982

Adaptive time = 250961
DILUPBiCGStab:  Solving for c, Initial residual = 1.58693e-05, Final residual = 4.33901e-12, No Iterations 2
Total mass = 1066.35
Flux out = 0.991982

Adaptive time = 250976
DILUPBiCGStab:  Solving for c, Initial residual = 1.58683e-05, Final residual = 4.33835e-12, No Iterations 2
Total mass = 1066.35
Flux out = 0.991983

Adaptive time = 250991
DILUPBiCGStab:  Solving for c, Initial residual = 1.58674e-05, Final residual = 4.33769e-12, No Iterations 2
Total mass = 1066.35
Flux out = 0.991984

Adaptive time = 251005
DILUPBiCGStab:  Solving for c, Initial residual = 1.58665e-05, Final residual = 4.33704e-12, No Iterations 2
Total mass = 1066.36
Flux out = 0.991984

Adaptive time = 251020
DILUPBiCGStab:  Solving for c, Initial residual = 1.58655e-05, Final residual = 4.33638e-12, No Iterations 2
Total mass = 1066.36
Flux out = 0.991985

Adaptive time = 251035
DILUPBiCGStab:  Solving for c, Initial residual = 1.58646e-05, Final residual = 4.33573e-12, No Iterations 2
Total mass = 1066.36
Flux out = 0.991986

Adaptive time = 251049
DILUPBiCGStab:  Solving for c, Initial residual = 1.58637e-05, Final residual = 4.33507e-12, No Iterations 2
Total mass = 1066.37
Flux out = 0.991986

Adaptive time = 251064
DILUPBiCGStab:  Solving for c, Initial residual = 1.58627e-05, Final residual = 4.33442e-12, No Iterations 2
Total mass = 1066.37
Flux out = 0.991987

Adaptive time = 251079
DILUPBiCGStab:  Solving for c, Initial residual = 1.58618e-05, Final residual = 4.33376e-12, No Iterations 2
Total mass = 1066.37
Flux out = 0.991988

Adaptive time = 251093
DILUPBiCGStab:  Solving for c, Initial residual = 1.58608e-05, Final residual = 4.33311e-12, No Iterations 2
Total mass = 1066.37
Flux out = 0.991989

Adaptive time = 251108
DILUPBiCGStab:  Solving for c, Initial residual = 1.58599e-05, Final residual = 4.33245e-12, No Iterations 2
Total mass = 1066.38
Flux out = 0.991989

Adaptive time = 251123
DILUPBiCGStab:  Solving for c, Initial residual = 1.5859e-05, Final residual = 4.3318e-12, No Iterations 2
Total mass = 1066.38
Flux out = 0.99199

Adaptive time = 251138
DILUPBiCGStab:  Solving for c, Initial residual = 1.5858e-05, Final residual = 4.33114e-12, No Iterations 2
Total mass = 1066.38
Flux out = 0.991991

Adaptive time = 251152
DILUPBiCGStab:  Solving for c, Initial residual = 1.58571e-05, Final residual = 4.33049e-12, No Iterations 2
Total mass = 1066.38
Flux out = 0.991991

Adaptive time = 251167
DILUPBiCGStab:  Solving for c, Initial residual = 1.58562e-05, Final residual = 4.32983e-12, No Iterations 2
Total mass = 1066.39
Flux out = 0.991992

Adaptive time = 251182
DILUPBiCGStab:  Solving for c, Initial residual = 1.58552e-05, Final residual = 4.32918e-12, No Iterations 2
Total mass = 1066.39
Flux out = 0.991993

Adaptive time = 251196
DILUPBiCGStab:  Solving for c, Initial residual = 1.58543e-05, Final residual = 4.32852e-12, No Iterations 2
Total mass = 1066.39
Flux out = 0.991993

Adaptive time = 251211
DILUPBiCGStab:  Solving for c, Initial residual = 1.58534e-05, Final residual = 4.32787e-12, No Iterations 2
Total mass = 1066.4
Flux out = 0.991994

Adaptive time = 251226
DILUPBiCGStab:  Solving for c, Initial residual = 1.58524e-05, Final residual = 4.32721e-12, No Iterations 2
Total mass = 1066.4
Flux out = 0.991995

Adaptive time = 251240
DILUPBiCGStab:  Solving for c, Initial residual = 1.58515e-05, Final residual = 4.32656e-12, No Iterations 2
Total mass = 1066.4
Flux out = 0.991995

Adaptive time = 251255
DILUPBiCGStab:  Solving for c, Initial residual = 1.58505e-05, Final residual = 4.32591e-12, No Iterations 2
Total mass = 1066.4
Flux out = 0.991996

Adaptive time = 251270
DILUPBiCGStab:  Solving for c, Initial residual = 1.58496e-05, Final residual = 4.32525e-12, No Iterations 2
Total mass = 1066.41
Flux out = 0.991997

Adaptive time = 251284
DILUPBiCGStab:  Solving for c, Initial residual = 1.58487e-05, Final residual = 4.3246e-12, No Iterations 2
Total mass = 1066.41
Flux out = 0.991997

Adaptive time = 251299
DILUPBiCGStab:  Solving for c, Initial residual = 1.58477e-05, Final residual = 4.32395e-12, No Iterations 2
Total mass = 1066.41
Flux out = 0.991998

Adaptive time = 251314
DILUPBiCGStab:  Solving for c, Initial residual = 1.58468e-05, Final residual = 4.32329e-12, No Iterations 2
Total mass = 1066.42
Flux out = 0.991999

Adaptive time = 251328
DILUPBiCGStab:  Solving for c, Initial residual = 1.58459e-05, Final residual = 4.32264e-12, No Iterations 2
Total mass = 1066.42
Flux out = 0.991999

Adaptive time = 251343
DILUPBiCGStab:  Solving for c, Initial residual = 1.58449e-05, Final residual = 4.32199e-12, No Iterations 2
Total mass = 1066.42
Flux out = 0.992

Adaptive time = 251358
DILUPBiCGStab:  Solving for c, Initial residual = 1.5844e-05, Final residual = 4.32133e-12, No Iterations 2
Total mass = 1066.42
Flux out = 0.992001

[3] 
[3] 
[3] --> FOAM FATAL ERROR: 
[3] Concentration under the threshold
[3] 
[3] 
[3]     From function macroScalarTransport
[3]     in file macroScalarTransport.C at line 103.
[3] 
FOAM parallel run exiting
[3] 
--------------------------------------------------------------------------
MPI_ABORT was invoked on rank 3 in communicator MPI COMMUNICATOR 3 SPLIT FROM 0
with errorcode 1.

NOTE: invoking MPI_ABORT causes Open MPI to kill all MPI processes.
You may or may not see output from other processes, depending on
exactly when Open MPI kills them.
--------------------------------------------------------------------------
[10] 
[10] 
[10] --> FOAM FATAL ERROR: 
[10] Concentration under the threshold
[10] 
[10] 
[10]     From function macroScalarTransport
[10]     in file macroScalarTransport.C at line 103.
[10] 
FOAM parallel run exiting
[10] 
[gercphd:18521] 1 more process has sent help message help-mpi-api.txt / mpi-abort
[gercphd:18521] Set MCA parameter "orte_base_help_aggregate" to 0 to see all help / error messages
