/*---------------------------------------------------------------------------*\
  =========                 |
  \\      /  F ield         | OpenFOAM: The Open Source CFD Toolbox
   \\    /   O peration     | Website:  https://openfoam.org
    \\  /    A nd           | Version:  8
     \\/     M anipulation  |
\*---------------------------------------------------------------------------*/
Build  : 8
Exec   : blockMesh
Date   : Nov 04 2022
Time   : 17:26:57
Host   : "compute017.int.augusta.nottingham.ac.uk"
PID    : 84239
I/O    : uncollated
Case   : /gpfs01/home/pmxep5/PGSFlowTransport/tutorials/RESULTS/Herten/varMecDisp1e-4alpha
nProcs : 1
sigFpe : Enabling floating point exception trapping (FOAM_SIGFPE).
fileModificationChecking : Monitoring run-time modified files using timeStampMaster (fileModificationSkew 10)
allowSystemOperations : Allowing user-supplied system call operations

// * * * * * * * * * * * * * * * * * * * * * * * * * * * * * * * * * * * * * //
Create time

Creating block mesh from
    "system/blockMeshDict"
Creating block edges
No non-planar block faces defined
Creating topology blocks
Creating topology patches

Creating block mesh topology

Check topology

	Basic statistics
		Number of internal faces : 0
		Number of boundary faces : 6
		Number of defined boundary faces : 6
		Number of undefined boundary faces : 0
	Checking patch -> block consistency

Creating block offsets
Creating merge list .

Creating polyMesh from blockMesh
Creating patches
Creating cells
Creating points with scale 1
    Block 0 cell size :
        i : 0.05 .. 0.05
        j : 0.05 .. 0.05
        k : 0.05 .. 0.05

Writing polyMesh
----------------
Mesh Information
----------------
  boundingBox: (0 0 0) (16 10 7)
  nPoints: 9097461
  nCells: 8960000
  nFaces: 27016800
  nInternalFaces: 26743200
----------------
Patches
----------------
  patch 0 (start: 26743200 size: 28000) name: inlet
  patch 1 (start: 26771200 size: 28000) name: outlet
  patch 2 (start: 26799200 size: 64000) name: lowerWall
  patch 3 (start: 26863200 size: 64000) name: upperWall
  patch 4 (start: 26927200 size: 89600) name: frontAndBack

End

/*---------------------------------------------------------------------------*\
  =========                 |
  \\      /  F ield         | OpenFOAM: The Open Source CFD Toolbox
   \\    /   O peration     | Website:  https://openfoam.org
    \\  /    A nd           | Version:  8
     \\/     M anipulation  |
\*---------------------------------------------------------------------------*/
Build  : 8
Exec   : decomposePar
Date   : Nov 04 2022
Time   : 17:27:52
Host   : "compute017.int.augusta.nottingham.ac.uk"
PID    : 84259
I/O    : uncollated
Case   : /gpfs01/home/pmxep5/PGSFlowTransport/tutorials/RESULTS/Herten/varMecDisp1e-4alpha
nProcs : 1
sigFpe : Enabling floating point exception trapping (FOAM_SIGFPE).
fileModificationChecking : Monitoring run-time modified files using timeStampMaster (fileModificationSkew 10)
allowSystemOperations : Allowing user-supplied system call operations

// * * * * * * * * * * * * * * * * * * * * * * * * * * * * * * * * * * * * * //
Create time



Decomposing mesh region0

Create mesh

Calculating distribution of cells
Selecting decompositionMethod simple

Finished decomposition in 5.66 s

Calculating original mesh data

Distributing cells to processors

Distributing faces to processors

Distributing points to processors

Constructing processor meshes

Processor 0
    Number of cells = 94000
    Number of faces shared with processor 1 = 2350
    Number of faces shared with processor 8 = 1880
    Number of faces shared with processor 32 = 2000
    Number of processor patches = 3
    Number of processor faces = 6230
    Number of boundary faces = 6230

Processor 1
    Number of cells = 94000
    Number of faces shared with processor 0 = 2350
    Number of faces shared with processor 2 = 2350
    Number of faces shared with processor 9 = 1880
    Number of faces shared with processor 33 = 2000
    Number of processor patches = 4
    Number of processor faces = 8580
    Number of boundary faces = 3880

Processor 2
    Number of cells = 94000
    Number of faces shared with processor 1 = 2350
    Number of faces shared with processor 3 = 2350
    Number of faces shared with processor 10 = 1880
    Number of faces shared with processor 34 = 2000
    Number of processor patches = 4
    Number of processor faces = 8580
    Number of boundary faces = 3880

Processor 3
    Number of cells = 94000
    Number of faces shared with processor 2 = 2350
    Number of faces shared with processor 4 = 2350
    Number of faces shared with processor 11 = 1880
    Number of faces shared with processor 35 = 2000
    Number of processor patches = 4
    Number of processor faces = 8580
    Number of boundary faces = 3880

Processor 4
    Number of cells = 94000
    Number of faces shared with processor 3 = 2350
    Number of faces shared with processor 5 = 2350
    Number of faces shared with processor 12 = 1880
    Number of faces shared with processor 36 = 2000
    Number of processor patches = 4
    Number of processor faces = 8580
    Number of boundary faces = 3880

Processor 5
    Number of cells = 94000
    Number of faces shared with processor 4 = 2350
    Number of faces shared with processor 6 = 2350
    Number of faces shared with processor 13 = 1880
    Number of faces shared with processor 37 = 2000
    Number of processor patches = 4
    Number of processor faces = 8580
    Number of boundary faces = 3880

Processor 6
    Number of cells = 93864
    Number of faces shared with processor 5 = 2350
    Number of faces shared with processor 7 = 2332
    Number of faces shared with processor 14 = 1863
    Number of faces shared with processor 38 = 2032
    Number of faces shared with processor 39 = 2
    Number of faces shared with processor 46 = 1
    Number of processor patches = 6
    Number of processor faces = 8580
    Number of boundary faces = 3880

Processor 7
    Number of cells = 92528
    Number of faces shared with processor 6 = 2332
    Number of faces shared with processor 15 = 1840
    Number of faces shared with processor 39 = 2064
    Number of processor patches = 3
    Number of processor faces = 6236
    Number of boundary faces = 6172

Processor 8
    Number of cells = 94000
    Number of faces shared with processor 0 = 1880
    Number of faces shared with processor 9 = 2350
    Number of faces shared with processor 16 = 1880
    Number of faces shared with processor 40 = 2000
    Number of processor patches = 4
    Number of processor faces = 8110
    Number of boundary faces = 4350

Processor 9
    Number of cells = 94000
    Number of faces shared with processor 1 = 1880
    Number of faces shared with processor 8 = 2350
    Number of faces shared with processor 10 = 2350
    Number of faces shared with processor 17 = 1880
    Number of faces shared with processor 41 = 2000
    Number of processor patches = 5
    Number of processor faces = 10460
    Number of boundary faces = 2000

Processor 10
    Number of cells = 94000
    Number of faces shared with processor 2 = 1880
    Number of faces shared with processor 9 = 2350
    Number of faces shared with processor 11 = 2350
    Number of faces shared with processor 18 = 1880
    Number of faces shared with processor 42 = 2000
    Number of processor patches = 5
    Number of processor faces = 10460
    Number of boundary faces = 2000

Processor 11
    Number of cells = 94000
    Number of faces shared with processor 3 = 1880
    Number of faces shared with processor 10 = 2350
    Number of faces shared with processor 12 = 2350
    Number of faces shared with processor 19 = 1880
    Number of faces shared with processor 43 = 2000
    Number of processor patches = 5
    Number of processor faces = 10460
    Number of boundary faces = 2000

Processor 12
    Number of cells = 94000
    Number of faces shared with processor 4 = 1880
    Number of faces shared with processor 11 = 2350
    Number of faces shared with processor 13 = 2350
    Number of faces shared with processor 20 = 1880
    Number of faces shared with processor 44 = 2000
    Number of processor patches = 5
    Number of processor faces = 10460
    Number of boundary faces = 2000

Processor 13
    Number of cells = 93649
    Number of faces shared with processor 5 = 1880
    Number of faces shared with processor 12 = 2350
    Number of faces shared with processor 14 = 2323
    Number of faces shared with processor 21 = 1853
    Number of faces shared with processor 45 = 2052
    Number of faces shared with processor 46 = 1
    Number of faces shared with processor 53 = 1
    Number of processor patches = 7
    Number of processor faces = 10460
    Number of boundary faces = 2000

Processor 14
    Number of cells = 92276
    Number of faces shared with processor 6 = 1863
    Number of faces shared with processor 13 = 2323
    Number of faces shared with processor 15 = 2300
    Number of faces shared with processor 22 = 1840
    Number of faces shared with processor 46 = 2046
    Number of processor patches = 5
    Number of processor faces = 10372
    Number of boundary faces = 2000

Processor 15
    Number of cells = 92000
    Number of faces shared with processor 7 = 1840
    Number of faces shared with processor 14 = 2300
    Number of faces shared with processor 23 = 1840
    Number of faces shared with processor 47 = 2000
    Number of processor patches = 4
    Number of processor faces = 7980
    Number of boundary faces = 4300

Processor 16
    Number of cells = 94000
    Number of faces shared with processor 8 = 1880
    Number of faces shared with processor 17 = 2350
    Number of faces shared with processor 24 = 1880
    Number of faces shared with processor 48 = 2000
    Number of processor patches = 4
    Number of processor faces = 8110
    Number of boundary faces = 4350

Processor 17
    Number of cells = 94000
    Number of faces shared with processor 9 = 1880
    Number of faces shared with processor 16 = 2350
    Number of faces shared with processor 18 = 2350
    Number of faces shared with processor 25 = 1880
    Number of faces shared with processor 49 = 2000
    Number of processor patches = 5
    Number of processor faces = 10460
    Number of boundary faces = 2000

Processor 18
    Number of cells = 94000
    Number of faces shared with processor 10 = 1880
    Number of faces shared with processor 17 = 2350
    Number of faces shared with processor 19 = 2350
    Number of faces shared with processor 26 = 1880
    Number of faces shared with processor 50 = 2000
    Number of processor patches = 5
    Number of processor faces = 10460
    Number of boundary faces = 2000

Processor 19
    Number of cells = 94000
    Number of faces shared with processor 11 = 1880
    Number of faces shared with processor 18 = 2350
    Number of faces shared with processor 20 = 2350
    Number of faces shared with processor 27 = 1880
    Number of faces shared with processor 51 = 2000
    Number of processor patches = 5
    Number of processor faces = 10460
    Number of boundary faces = 2000

Processor 20
    Number of cells = 93334
    Number of faces shared with processor 12 = 1880
    Number of faces shared with processor 19 = 2350
    Number of faces shared with processor 21 = 2313
    Number of faces shared with processor 28 = 1843
    Number of faces shared with processor 52 = 2072
    Number of faces shared with processor 53 = 1
    Number of faces shared with processor 60 = 1
    Number of processor patches = 7
    Number of processor faces = 10460
    Number of boundary faces = 2000

Processor 21
    Number of cells = 92091
    Number of faces shared with processor 13 = 1853
    Number of faces shared with processor 20 = 2313
    Number of faces shared with processor 22 = 2300
    Number of faces shared with processor 29 = 1840
    Number of faces shared with processor 53 = 2026
    Number of processor patches = 5
    Number of processor faces = 10332
    Number of boundary faces = 2000

Processor 22
    Number of cells = 92000
    Number of faces shared with processor 14 = 1840
    Number of faces shared with processor 21 = 2300
    Number of faces shared with processor 23 = 2300
    Number of faces shared with processor 30 = 1840
    Number of faces shared with processor 54 = 2000
    Number of processor patches = 5
    Number of processor faces = 10280
    Number of boundary faces = 2000

Processor 23
    Number of cells = 92000
    Number of faces shared with processor 15 = 1840
    Number of faces shared with processor 22 = 2300
    Number of faces shared with processor 31 = 1840
    Number of faces shared with processor 55 = 2000
    Number of processor patches = 4
    Number of processor faces = 7980
    Number of boundary faces = 4300

Processor 24
    Number of cells = 94000
    Number of faces shared with processor 16 = 1880
    Number of faces shared with processor 25 = 2350
    Number of faces shared with processor 56 = 2000
    Number of processor patches = 3
    Number of processor faces = 6230
    Number of boundary faces = 6230

Processor 25
    Number of cells = 94000
    Number of faces shared with processor 17 = 1880
    Number of faces shared with processor 24 = 2350
    Number of faces shared with processor 26 = 2350
    Number of faces shared with processor 57 = 2000
    Number of processor patches = 4
    Number of processor faces = 8580
    Number of boundary faces = 3880

Processor 26
    Number of cells = 93979
    Number of faces shared with processor 18 = 1880
    Number of faces shared with processor 25 = 2350
    Number of faces shared with processor 27 = 2343
    Number of faces shared with processor 58 = 2012
    Number of faces shared with processor 59 = 1
    Number of processor patches = 5
    Number of processor faces = 8586
    Number of boundary faces = 3874

Processor 27
    Number of cells = 92940
    Number of faces shared with processor 19 = 1880
    Number of faces shared with processor 26 = 2343
    Number of faces shared with processor 28 = 2303
    Number of faces shared with processor 59 = 2079
    Number of faces shared with processor 60 = 1
    Number of processor patches = 5
    Number of processor faces = 8606
    Number of boundary faces = 3840

Processor 28
    Number of cells = 92006
    Number of faces shared with processor 20 = 1843
    Number of faces shared with processor 27 = 2303
    Number of faces shared with processor 29 = 2300
    Number of faces shared with processor 60 = 2006
    Number of processor patches = 4
    Number of processor faces = 8452
    Number of boundary faces = 3840

Processor 29
    Number of cells = 92000
    Number of faces shared with processor 21 = 1840
    Number of faces shared with processor 28 = 2300
    Number of faces shared with processor 30 = 2300
    Number of faces shared with processor 61 = 2000
    Number of processor patches = 4
    Number of processor faces = 8440
    Number of boundary faces = 3840

Processor 30
    Number of cells = 92000
    Number of faces shared with processor 22 = 1840
    Number of faces shared with processor 29 = 2300
    Number of faces shared with processor 31 = 2300
    Number of faces shared with processor 62 = 2000
    Number of processor patches = 4
    Number of processor faces = 8440
    Number of boundary faces = 3840

Processor 31
    Number of cells = 92000
    Number of faces shared with processor 23 = 1840
    Number of faces shared with processor 30 = 2300
    Number of faces shared with processor 63 = 2000
    Number of processor patches = 3
    Number of processor faces = 6140
    Number of boundary faces = 6140

Processor 32
    Number of cells = 94000
    Number of faces shared with processor 0 = 2000
    Number of faces shared with processor 33 = 2350
    Number of faces shared with processor 40 = 1880
    Number of faces shared with processor 64 = 2000
    Number of processor patches = 4
    Number of processor faces = 8230
    Number of boundary faces = 4230

Processor 33
    Number of cells = 94000
    Number of faces shared with processor 1 = 2000
    Number of faces shared with processor 32 = 2350
    Number of faces shared with processor 34 = 2350
    Number of faces shared with processor 41 = 1880
    Number of faces shared with processor 65 = 2000
    Number of processor patches = 5
    Number of processor faces = 10580
    Number of boundary faces = 1880

Processor 34
    Number of cells = 94000
    Number of faces shared with processor 2 = 2000
    Number of faces shared with processor 33 = 2350
    Number of faces shared with processor 35 = 2350
    Number of faces shared with processor 42 = 1880
    Number of faces shared with processor 66 = 2000
    Number of processor patches = 5
    Number of processor faces = 10580
    Number of boundary faces = 1880

Processor 35
    Number of cells = 93994
    Number of faces shared with processor 3 = 2000
    Number of faces shared with processor 34 = 2350
    Number of faces shared with processor 36 = 2346
    Number of faces shared with processor 43 = 1876
    Number of faces shared with processor 67 = 2006
    Number of faces shared with processor 68 = 1
    Number of faces shared with processor 75 = 1
    Number of processor patches = 7
    Number of processor faces = 10580
    Number of boundary faces = 1880

Processor 36
    Number of cells = 93060
    Number of faces shared with processor 4 = 2000
    Number of faces shared with processor 35 = 2346
    Number of faces shared with processor 37 = 2306
    Number of faces shared with processor 44 = 1840
    Number of faces shared with processor 68 = 2079
    Number of faces shared with processor 69 = 1
    Number of processor patches = 6
    Number of processor faces = 10572
    Number of boundary faces = 1880

Processor 37
    Number of cells = 92021
    Number of faces shared with processor 5 = 2000
    Number of faces shared with processor 36 = 2306
    Number of faces shared with processor 38 = 2300
    Number of faces shared with processor 45 = 1840
    Number of faces shared with processor 69 = 2012
    Number of processor patches = 5
    Number of processor faces = 10458
    Number of boundary faces = 1846

Processor 38
    Number of cells = 92136
    Number of faces shared with processor 6 = 2032
    Number of faces shared with processor 37 = 2300
    Number of faces shared with processor 39 = 2316
    Number of faces shared with processor 46 = 1856
    Number of faces shared with processor 70 = 2000
    Number of processor patches = 5
    Number of processor faces = 10504
    Number of boundary faces = 1840

Processor 39
    Number of cells = 93472
    Number of faces shared with processor 6 = 2
    Number of faces shared with processor 7 = 2064
    Number of faces shared with processor 38 = 2316
    Number of faces shared with processor 47 = 1880
    Number of faces shared with processor 71 = 2000
    Number of processor patches = 5
    Number of processor faces = 8262
    Number of boundary faces = 4198

Processor 40
    Number of cells = 94000
    Number of faces shared with processor 8 = 2000
    Number of faces shared with processor 32 = 1880
    Number of faces shared with processor 41 = 2350
    Number of faces shared with processor 48 = 1880
    Number of faces shared with processor 72 = 2000
    Number of processor patches = 5
    Number of processor faces = 10110
    Number of boundary faces = 2350

Processor 41
    Number of cells = 94000
    Number of faces shared with processor 9 = 2000
    Number of faces shared with processor 33 = 1880
    Number of faces shared with processor 40 = 2350
    Number of faces shared with processor 42 = 2350
    Number of faces shared with processor 49 = 1880
    Number of faces shared with processor 73 = 2000
    Number of processor patches = 6
    Number of processor faces = 12460
    Number of boundary faces = 0

Processor 42
    Number of cells = 93909
    Number of faces shared with processor 10 = 2000
    Number of faces shared with processor 34 = 1880
    Number of faces shared with processor 41 = 2350
    Number of faces shared with processor 43 = 2336
    Number of faces shared with processor 50 = 1866
    Number of faces shared with processor 74 = 2026
    Number of faces shared with processor 75 = 1
    Number of faces shared with processor 82 = 1
    Number of processor patches = 8
    Number of processor faces = 12460
    Number of boundary faces = 0

Processor 43
    Number of cells = 92666
    Number of faces shared with processor 11 = 2000
    Number of faces shared with processor 35 = 1876
    Number of faces shared with processor 42 = 2336
    Number of faces shared with processor 44 = 2300
    Number of faces shared with processor 51 = 1840
    Number of faces shared with processor 75 = 2072
    Number of processor patches = 6
    Number of processor faces = 12424
    Number of boundary faces = 0

Processor 44
    Number of cells = 92000
    Number of faces shared with processor 12 = 2000
    Number of faces shared with processor 36 = 1840
    Number of faces shared with processor 43 = 2300
    Number of faces shared with processor 45 = 2300
    Number of faces shared with processor 52 = 1840
    Number of faces shared with processor 76 = 2000
    Number of processor patches = 6
    Number of processor faces = 12280
    Number of boundary faces = 0

Processor 45
    Number of cells = 92351
    Number of faces shared with processor 13 = 2052
    Number of faces shared with processor 37 = 1840
    Number of faces shared with processor 44 = 2300
    Number of faces shared with processor 46 = 2326
    Number of faces shared with processor 53 = 1866
    Number of faces shared with processor 77 = 2000
    Number of processor patches = 6
    Number of processor faces = 12384
    Number of boundary faces = 0

Processor 46
    Number of cells = 93724
    Number of faces shared with processor 6 = 1
    Number of faces shared with processor 13 = 1
    Number of faces shared with processor 14 = 2046
    Number of faces shared with processor 38 = 1856
    Number of faces shared with processor 45 = 2326
    Number of faces shared with processor 47 = 2350
    Number of faces shared with processor 54 = 1880
    Number of faces shared with processor 78 = 2000
    Number of processor patches = 8
    Number of processor faces = 12460
    Number of boundary faces = 0

Processor 47
    Number of cells = 94000
    Number of faces shared with processor 15 = 2000
    Number of faces shared with processor 39 = 1880
    Number of faces shared with processor 46 = 2350
    Number of faces shared with processor 55 = 1880
    Number of faces shared with processor 79 = 2000
    Number of processor patches = 5
    Number of processor faces = 10110
    Number of boundary faces = 2350

Processor 48
    Number of cells = 94000
    Number of faces shared with processor 16 = 2000
    Number of faces shared with processor 40 = 1880
    Number of faces shared with processor 49 = 2350
    Number of faces shared with processor 56 = 1880
    Number of faces shared with processor 80 = 2000
    Number of processor patches = 5
    Number of processor faces = 10110
    Number of boundary faces = 2350

Processor 49
    Number of cells = 93724
    Number of faces shared with processor 17 = 2000
    Number of faces shared with processor 41 = 1880
    Number of faces shared with processor 48 = 2350
    Number of faces shared with processor 50 = 2326
    Number of faces shared with processor 57 = 1856
    Number of faces shared with processor 81 = 2046
    Number of faces shared with processor 82 = 1
    Number of faces shared with processor 89 = 1
    Number of processor patches = 8
    Number of processor faces = 12460
    Number of boundary faces = 0

Processor 50
    Number of cells = 92351
    Number of faces shared with processor 18 = 2000
    Number of faces shared with processor 42 = 1866
    Number of faces shared with processor 49 = 2326
    Number of faces shared with processor 51 = 2300
    Number of faces shared with processor 58 = 1840
    Number of faces shared with processor 82 = 2052
    Number of processor patches = 6
    Number of processor faces = 12384
    Number of boundary faces = 0

Processor 51
    Number of cells = 92000
    Number of faces shared with processor 19 = 2000
    Number of faces shared with processor 43 = 1840
    Number of faces shared with processor 50 = 2300
    Number of faces shared with processor 52 = 2300
    Number of faces shared with processor 59 = 1840
    Number of faces shared with processor 83 = 2000
    Number of processor patches = 6
    Number of processor faces = 12280
    Number of boundary faces = 0

Processor 52
    Number of cells = 92666
    Number of faces shared with processor 20 = 2072
    Number of faces shared with processor 44 = 1840
    Number of faces shared with processor 51 = 2300
    Number of faces shared with processor 53 = 2336
    Number of faces shared with processor 60 = 1876
    Number of faces shared with processor 84 = 2000
    Number of processor patches = 6
    Number of processor faces = 12424
    Number of boundary faces = 0

Processor 53
    Number of cells = 93909
    Number of faces shared with processor 13 = 1
    Number of faces shared with processor 20 = 1
    Number of faces shared with processor 21 = 2026
    Number of faces shared with processor 45 = 1866
    Number of faces shared with processor 52 = 2336
    Number of faces shared with processor 54 = 2350
    Number of faces shared with processor 61 = 1880
    Number of faces shared with processor 85 = 2000
    Number of processor patches = 8
    Number of processor faces = 12460
    Number of boundary faces = 0

Processor 54
    Number of cells = 94000
    Number of faces shared with processor 22 = 2000
    Number of faces shared with processor 46 = 1880
    Number of faces shared with processor 53 = 2350
    Number of faces shared with processor 55 = 2350
    Number of faces shared with processor 62 = 1880
    Number of faces shared with processor 86 = 2000
    Number of processor patches = 6
    Number of processor faces = 12460
    Number of boundary faces = 0

Processor 55
    Number of cells = 94000
    Number of faces shared with processor 23 = 2000
    Number of faces shared with processor 47 = 1880
    Number of faces shared with processor 54 = 2350
    Number of faces shared with processor 63 = 1880
    Number of faces shared with processor 87 = 2000
    Number of processor patches = 5
    Number of processor faces = 10110
    Number of boundary faces = 2350

Processor 56
    Number of cells = 93472
    Number of faces shared with processor 24 = 2000
    Number of faces shared with processor 48 = 1880
    Number of faces shared with processor 57 = 2317
    Number of faces shared with processor 88 = 2064
    Number of faces shared with processor 89 = 1
    Number of processor patches = 5
    Number of processor faces = 8262
    Number of boundary faces = 4198

Processor 57
    Number of cells = 92137
    Number of faces shared with processor 25 = 2000
    Number of faces shared with processor 49 = 1856
    Number of faces shared with processor 56 = 2317
    Number of faces shared with processor 58 = 2300
    Number of faces shared with processor 89 = 2033
    Number of processor patches = 5
    Number of processor faces = 10506
    Number of boundary faces = 1840

Processor 58
    Number of cells = 92021
    Number of faces shared with processor 26 = 2012
    Number of faces shared with processor 50 = 1840
    Number of faces shared with processor 57 = 2300
    Number of faces shared with processor 59 = 2306
    Number of faces shared with processor 90 = 2000
    Number of processor patches = 5
    Number of processor faces = 10458
    Number of boundary faces = 1846

Processor 59
    Number of cells = 93060
    Number of faces shared with processor 26 = 1
    Number of faces shared with processor 27 = 2079
    Number of faces shared with processor 51 = 1840
    Number of faces shared with processor 58 = 2306
    Number of faces shared with processor 60 = 2346
    Number of faces shared with processor 91 = 2000
    Number of processor patches = 6
    Number of processor faces = 10572
    Number of boundary faces = 1880

Processor 60
    Number of cells = 93994
    Number of faces shared with processor 20 = 1
    Number of faces shared with processor 27 = 1
    Number of faces shared with processor 28 = 2006
    Number of faces shared with processor 52 = 1876
    Number of faces shared with processor 59 = 2346
    Number of faces shared with processor 61 = 2350
    Number of faces shared with processor 92 = 2000
    Number of processor patches = 7
    Number of processor faces = 10580
    Number of boundary faces = 1880

Processor 61
    Number of cells = 94000
    Number of faces shared with processor 29 = 2000
    Number of faces shared with processor 53 = 1880
    Number of faces shared with processor 60 = 2350
    Number of faces shared with processor 62 = 2350
    Number of faces shared with processor 93 = 2000
    Number of processor patches = 5
    Number of processor faces = 10580
    Number of boundary faces = 1880

Processor 62
    Number of cells = 94000
    Number of faces shared with processor 30 = 2000
    Number of faces shared with processor 54 = 1880
    Number of faces shared with processor 61 = 2350
    Number of faces shared with processor 63 = 2350
    Number of faces shared with processor 94 = 2000
    Number of processor patches = 5
    Number of processor faces = 10580
    Number of boundary faces = 1880

Processor 63
    Number of cells = 94000
    Number of faces shared with processor 31 = 2000
    Number of faces shared with processor 55 = 1880
    Number of faces shared with processor 62 = 2350
    Number of faces shared with processor 95 = 2000
    Number of processor patches = 4
    Number of processor faces = 8230
    Number of boundary faces = 4230

Processor 64
    Number of cells = 92000
    Number of faces shared with processor 32 = 2000
    Number of faces shared with processor 65 = 2300
    Number of faces shared with processor 72 = 1840
    Number of processor patches = 3
    Number of processor faces = 6140
    Number of boundary faces = 6140

Processor 65
    Number of cells = 92000
    Number of faces shared with processor 33 = 2000
    Number of faces shared with processor 64 = 2300
    Number of faces shared with processor 66 = 2300
    Number of faces shared with processor 73 = 1840
    Number of processor patches = 4
    Number of processor faces = 8440
    Number of boundary faces = 3840

Processor 66
    Number of cells = 92000
    Number of faces shared with processor 34 = 2000
    Number of faces shared with processor 65 = 2300
    Number of faces shared with processor 67 = 2300
    Number of faces shared with processor 74 = 1840
    Number of processor patches = 4
    Number of processor faces = 8440
    Number of boundary faces = 3840

Processor 67
    Number of cells = 92006
    Number of faces shared with processor 35 = 2006
    Number of faces shared with processor 66 = 2300
    Number of faces shared with processor 68 = 2303
    Number of faces shared with processor 75 = 1843
    Number of processor patches = 4
    Number of processor faces = 8452
    Number of boundary faces = 3840

Processor 68
    Number of cells = 92940
    Number of faces shared with processor 35 = 1
    Number of faces shared with processor 36 = 2079
    Number of faces shared with processor 67 = 2303
    Number of faces shared with processor 69 = 2343
    Number of faces shared with processor 76 = 1880
    Number of processor patches = 5
    Number of processor faces = 8606
    Number of boundary faces = 3840

Processor 69
    Number of cells = 93979
    Number of faces shared with processor 36 = 1
    Number of faces shared with processor 37 = 2012
    Number of faces shared with processor 68 = 2343
    Number of faces shared with processor 70 = 2350
    Number of faces shared with processor 77 = 1880
    Number of processor patches = 5
    Number of processor faces = 8586
    Number of boundary faces = 3874

Processor 70
    Number of cells = 94000
    Number of faces shared with processor 38 = 2000
    Number of faces shared with processor 69 = 2350
    Number of faces shared with processor 71 = 2350
    Number of faces shared with processor 78 = 1880
    Number of processor patches = 4
    Number of processor faces = 8580
    Number of boundary faces = 3880

Processor 71
    Number of cells = 94000
    Number of faces shared with processor 39 = 2000
    Number of faces shared with processor 70 = 2350
    Number of faces shared with processor 79 = 1880
    Number of processor patches = 3
    Number of processor faces = 6230
    Number of boundary faces = 6230

Processor 72
    Number of cells = 92000
    Number of faces shared with processor 40 = 2000
    Number of faces shared with processor 64 = 1840
    Number of faces shared with processor 73 = 2300
    Number of faces shared with processor 80 = 1840
    Number of processor patches = 4
    Number of processor faces = 7980
    Number of boundary faces = 4300

Processor 73
    Number of cells = 92000
    Number of faces shared with processor 41 = 2000
    Number of faces shared with processor 65 = 1840
    Number of faces shared with processor 72 = 2300
    Number of faces shared with processor 74 = 2300
    Number of faces shared with processor 81 = 1840
    Number of processor patches = 5
    Number of processor faces = 10280
    Number of boundary faces = 2000

Processor 74
    Number of cells = 92091
    Number of faces shared with processor 42 = 2026
    Number of faces shared with processor 66 = 1840
    Number of faces shared with processor 73 = 2300
    Number of faces shared with processor 75 = 2313
    Number of faces shared with processor 82 = 1853
    Number of processor patches = 5
    Number of processor faces = 10332
    Number of boundary faces = 2000

Processor 75
    Number of cells = 93334
    Number of faces shared with processor 35 = 1
    Number of faces shared with processor 42 = 1
    Number of faces shared with processor 43 = 2072
    Number of faces shared with processor 67 = 1843
    Number of faces shared with processor 74 = 2313
    Number of faces shared with processor 76 = 2350
    Number of faces shared with processor 83 = 1880
    Number of processor patches = 7
    Number of processor faces = 10460
    Number of boundary faces = 2000

Processor 76
    Number of cells = 94000
    Number of faces shared with processor 44 = 2000
    Number of faces shared with processor 68 = 1880
    Number of faces shared with processor 75 = 2350
    Number of faces shared with processor 77 = 2350
    Number of faces shared with processor 84 = 1880
    Number of processor patches = 5
    Number of processor faces = 10460
    Number of boundary faces = 2000

Processor 77
    Number of cells = 94000
    Number of faces shared with processor 45 = 2000
    Number of faces shared with processor 69 = 1880
    Number of faces shared with processor 76 = 2350
    Number of faces shared with processor 78 = 2350
    Number of faces shared with processor 85 = 1880
    Number of processor patches = 5
    Number of processor faces = 10460
    Number of boundary faces = 2000

Processor 78
    Number of cells = 94000
    Number of faces shared with processor 46 = 2000
    Number of faces shared with processor 70 = 1880
    Number of faces shared with processor 77 = 2350
    Number of faces shared with processor 79 = 2350
    Number of faces shared with processor 86 = 1880
    Number of processor patches = 5
    Number of processor faces = 10460
    Number of boundary faces = 2000

Processor 79
    Number of cells = 94000
    Number of faces shared with processor 47 = 2000
    Number of faces shared with processor 71 = 1880
    Number of faces shared with processor 78 = 2350
    Number of faces shared with processor 87 = 1880
    Number of processor patches = 4
    Number of processor faces = 8110
    Number of boundary faces = 4350

Processor 80
    Number of cells = 92000
    Number of faces shared with processor 48 = 2000
    Number of faces shared with processor 72 = 1840
    Number of faces shared with processor 81 = 2300
    Number of faces shared with processor 88 = 1840
    Number of processor patches = 4
    Number of processor faces = 7980
    Number of boundary faces = 4300

Processor 81
    Number of cells = 92276
    Number of faces shared with processor 49 = 2046
    Number of faces shared with processor 73 = 1840
    Number of faces shared with processor 80 = 2300
    Number of faces shared with processor 82 = 2323
    Number of faces shared with processor 89 = 1863
    Number of processor patches = 5
    Number of processor faces = 10372
    Number of boundary faces = 2000

Processor 82
    Number of cells = 93649
    Number of faces shared with processor 42 = 1
    Number of faces shared with processor 49 = 1
    Number of faces shared with processor 50 = 2052
    Number of faces shared with processor 74 = 1853
    Number of faces shared with processor 81 = 2323
    Number of faces shared with processor 83 = 2350
    Number of faces shared with processor 90 = 1880
    Number of processor patches = 7
    Number of processor faces = 10460
    Number of boundary faces = 2000

Processor 83
    Number of cells = 94000
    Number of faces shared with processor 51 = 2000
    Number of faces shared with processor 75 = 1880
    Number of faces shared with processor 82 = 2350
    Number of faces shared with processor 84 = 2350
    Number of faces shared with processor 91 = 1880
    Number of processor patches = 5
    Number of processor faces = 10460
    Number of boundary faces = 2000

Processor 84
    Number of cells = 94000
    Number of faces shared with processor 52 = 2000
    Number of faces shared with processor 76 = 1880
    Number of faces shared with processor 83 = 2350
    Number of faces shared with processor 85 = 2350
    Number of faces shared with processor 92 = 1880
    Number of processor patches = 5
    Number of processor faces = 10460
    Number of boundary faces = 2000

Processor 85
    Number of cells = 94000
    Number of faces shared with processor 53 = 2000
    Number of faces shared with processor 77 = 1880
    Number of faces shared with processor 84 = 2350
    Number of faces shared with processor 86 = 2350
    Number of faces shared with processor 93 = 1880
    Number of processor patches = 5
    Number of processor faces = 10460
    Number of boundary faces = 2000

Processor 86
    Number of cells = 94000
    Number of faces shared with processor 54 = 2000
    Number of faces shared with processor 78 = 1880
    Number of faces shared with processor 85 = 2350
    Number of faces shared with processor 87 = 2350
    Number of faces shared with processor 94 = 1880
    Number of processor patches = 5
    Number of processor faces = 10460
    Number of boundary faces = 2000

Processor 87
    Number of cells = 94000
    Number of faces shared with processor 55 = 2000
    Number of faces shared with processor 79 = 1880
    Number of faces shared with processor 86 = 2350
    Number of faces shared with processor 95 = 1880
    Number of processor patches = 4
    Number of processor faces = 8110
    Number of boundary faces = 4350

Processor 88
    Number of cells = 92528
    Number of faces shared with processor 56 = 2064
    Number of faces shared with processor 80 = 1840
    Number of faces shared with processor 89 = 2332
    Number of processor patches = 3
    Number of processor faces = 6236
    Number of boundary faces = 6172

Processor 89
    Number of cells = 93863
    Number of faces shared with processor 49 = 1
    Number of faces shared with processor 56 = 1
    Number of faces shared with processor 57 = 2033
    Number of faces shared with processor 81 = 1863
    Number of faces shared with processor 88 = 2332
    Number of faces shared with processor 90 = 2350
    Number of processor patches = 6
    Number of processor faces = 8580
    Number of boundary faces = 3880

Processor 90
    Number of cells = 94000
    Number of faces shared with processor 58 = 2000
    Number of faces shared with processor 82 = 1880
    Number of faces shared with processor 89 = 2350
    Number of faces shared with processor 91 = 2350
    Number of processor patches = 4
    Number of processor faces = 8580
    Number of boundary faces = 3880

Processor 91
    Number of cells = 94000
    Number of faces shared with processor 59 = 2000
    Number of faces shared with processor 83 = 1880
    Number of faces shared with processor 90 = 2350
    Number of faces shared with processor 92 = 2350
    Number of processor patches = 4
    Number of processor faces = 8580
    Number of boundary faces = 3880

Processor 92
    Number of cells = 94000
    Number of faces shared with processor 60 = 2000
    Number of faces shared with processor 84 = 1880
    Number of faces shared with processor 91 = 2350
    Number of faces shared with processor 93 = 2350
    Number of processor patches = 4
    Number of processor faces = 8580
    Number of boundary faces = 3880

Processor 93
    Number of cells = 94000
    Number of faces shared with processor 61 = 2000
    Number of faces shared with processor 85 = 1880
    Number of faces shared with processor 92 = 2350
    Number of faces shared with processor 94 = 2350
    Number of processor patches = 4
    Number of processor faces = 8580
    Number of boundary faces = 3880

Processor 94
    Number of cells = 94000
    Number of faces shared with processor 62 = 2000
    Number of faces shared with processor 86 = 1880
    Number of faces shared with processor 93 = 2350
    Number of faces shared with processor 95 = 2350
    Number of processor patches = 4
    Number of processor faces = 8580
    Number of boundary faces = 3880

Processor 95
    Number of cells = 94000
    Number of faces shared with processor 63 = 2000
    Number of faces shared with processor 87 = 1880
    Number of faces shared with processor 94 = 2350
    Number of processor patches = 3
    Number of processor faces = 6230
    Number of boundary faces = 6230

Number of processor faces = 459179
Max number of cells = 94000 (0.714286% above average 93333.3)
Max number of processor patches = 8 (62.7119% above average 4.91667)
Max number of faces between processors = 12460 (30.2499% above average 9566.23)

Time = 0

Processor 0: field transfer
Processor 1: field transfer
Processor 2: field transfer
Processor 3: field transfer
Processor 4: field transfer
Processor 5: field transfer
Processor 6: field transfer
Processor 7: field transfer
Processor 8: field transfer
Processor 9: field transfer
Processor 10: field transfer
Processor 11: field transfer
Processor 12: field transfer
Processor 13: field transfer
Processor 14: field transfer
Processor 15: field transfer
Processor 16: field transfer
Processor 17: field transfer
Processor 18: field transfer
Processor 19: field transfer
Processor 20: field transfer
Processor 21: field transfer
Processor 22: field transfer
Processor 23: field transfer
Processor 24: field transfer
Processor 25: field transfer
Processor 26: field transfer
Processor 27: field transfer
Processor 28: field transfer
Processor 29: field transfer
Processor 30: field transfer
Processor 31: field transfer
Processor 32: field transfer
Processor 33: field transfer
Processor 34: field transfer
Processor 35: field transfer
Processor 36: field transfer
Processor 37: field transfer
Processor 38: field transfer
Processor 39: field transfer
Processor 40: field transfer
Processor 41: field transfer
Processor 42: field transfer
Processor 43: field transfer
Processor 44: field transfer
Processor 45: field transfer
Processor 46: field transfer
Processor 47: field transfer
Processor 48: field transfer
Processor 49: field transfer
Processor 50: field transfer
Processor 51: field transfer
Processor 52: field transfer
Processor 53: field transfer
Processor 54: field transfer
Processor 55: field transfer
Processor 56: field transfer
Processor 57: field transfer
Processor 58: field transfer
Processor 59: field transfer
Processor 60: field transfer
Processor 61: field transfer
Processor 62: field transfer
Processor 63: field transfer
Processor 64: field transfer
Processor 65: field transfer
Processor 66: field transfer
Processor 67: field transfer
Processor 68: field transfer
Processor 69: field transfer
Processor 70: field transfer
Processor 71: field transfer
Processor 72: field transfer
Processor 73: field transfer
Processor 74: field transfer
Processor 75: field transfer
Processor 76: field transfer
Processor 77: field transfer
Processor 78: field transfer
Processor 79: field transfer
Processor 80: field transfer
Processor 81: field transfer
Processor 82: field transfer
Processor 83: field transfer
Processor 84: field transfer
Processor 85: field transfer
Processor 86: field transfer
Processor 87: field transfer
Processor 88: field transfer
Processor 89: field transfer
Processor 90: field transfer
Processor 91: field transfer
Processor 92: field transfer
Processor 93: field transfer
Processor 94: field transfer
Processor 95: field transfer

End

/*---------------------------------------------------------------------------*\
  =========                 |
  \\      /  F ield         | OpenFOAM: The Open Source CFD Toolbox
   \\    /   O peration     | Website:  https://openfoam.org
    \\  /    A nd           | Version:  8
     \\/     M anipulation  |
\*---------------------------------------------------------------------------*/
Build  : 8
Exec   : simpleDarcyFoam -parallel
Date   : Nov 04 2022
Time   : 17:30:18
Host   : "compute017.int.augusta.nottingham.ac.uk"
PID    : 84407
I/O    : uncollated
Case   : /gpfs01/home/pmxep5/PGSFlowTransport/tutorials/RESULTS/Herten/varMecDisp1e-4alpha
nProcs : 96
Slaves : 
95
(
"compute017.int.augusta.nottingham.ac.uk.84409"
"compute017.int.augusta.nottingham.ac.uk.84411"
"compute017.int.augusta.nottingham.ac.uk.84413"
"compute017.int.augusta.nottingham.ac.uk.84415"
"compute017.int.augusta.nottingham.ac.uk.84417"
"compute017.int.augusta.nottingham.ac.uk.84419"
"compute017.int.augusta.nottingham.ac.uk.84421"
"compute017.int.augusta.nottingham.ac.uk.84423"
"compute017.int.augusta.nottingham.ac.uk.84425"
"compute017.int.augusta.nottingham.ac.uk.84427"
"compute017.int.augusta.nottingham.ac.uk.84429"
"compute018.int.augusta.nottingham.ac.uk.201776"
"compute018.int.augusta.nottingham.ac.uk.201778"
"compute018.int.augusta.nottingham.ac.uk.201780"
"compute018.int.augusta.nottingham.ac.uk.201782"
"compute018.int.augusta.nottingham.ac.uk.201784"
"compute018.int.augusta.nottingham.ac.uk.201786"
"compute018.int.augusta.nottingham.ac.uk.201788"
"compute018.int.augusta.nottingham.ac.uk.201790"
"compute018.int.augusta.nottingham.ac.uk.201792"
"compute018.int.augusta.nottingham.ac.uk.201794"
"compute018.int.augusta.nottingham.ac.uk.201796"
"compute018.int.augusta.nottingham.ac.uk.201798"
"compute022.int.augusta.nottingham.ac.uk.58031"
"compute022.int.augusta.nottingham.ac.uk.58032"
"compute022.int.augusta.nottingham.ac.uk.58033"
"compute022.int.augusta.nottingham.ac.uk.58034"
"compute022.int.augusta.nottingham.ac.uk.58035"
"compute022.int.augusta.nottingham.ac.uk.58036"
"compute022.int.augusta.nottingham.ac.uk.58037"
"compute022.int.augusta.nottingham.ac.uk.58080"
"compute022.int.augusta.nottingham.ac.uk.58081"
"compute022.int.augusta.nottingham.ac.uk.58082"
"compute022.int.augusta.nottingham.ac.uk.58083"
"compute022.int.augusta.nottingham.ac.uk.58084"
"compute023.int.augusta.nottingham.ac.uk.190287"
"compute023.int.augusta.nottingham.ac.uk.190288"
"compute023.int.augusta.nottingham.ac.uk.190289"
"compute023.int.augusta.nottingham.ac.uk.190290"
"compute023.int.augusta.nottingham.ac.uk.190291"
"compute023.int.augusta.nottingham.ac.uk.190292"
"compute023.int.augusta.nottingham.ac.uk.190293"
"compute023.int.augusta.nottingham.ac.uk.190294"
"compute023.int.augusta.nottingham.ac.uk.190295"
"compute023.int.augusta.nottingham.ac.uk.190296"
"compute023.int.augusta.nottingham.ac.uk.190297"
"compute023.int.augusta.nottingham.ac.uk.190298"
"compute049.int.augusta.nottingham.ac.uk.90539"
"compute049.int.augusta.nottingham.ac.uk.90540"
"compute049.int.augusta.nottingham.ac.uk.90541"
"compute049.int.augusta.nottingham.ac.uk.90542"
"compute049.int.augusta.nottingham.ac.uk.90543"
"compute049.int.augusta.nottingham.ac.uk.90544"
"compute049.int.augusta.nottingham.ac.uk.90545"
"compute049.int.augusta.nottingham.ac.uk.90546"
"compute049.int.augusta.nottingham.ac.uk.90547"
"compute049.int.augusta.nottingham.ac.uk.90548"
"compute049.int.augusta.nottingham.ac.uk.90549"
"compute049.int.augusta.nottingham.ac.uk.90550"
"compute050.int.augusta.nottingham.ac.uk.23725"
"compute050.int.augusta.nottingham.ac.uk.23726"
"compute050.int.augusta.nottingham.ac.uk.23727"
"compute050.int.augusta.nottingham.ac.uk.23728"
"compute050.int.augusta.nottingham.ac.uk.23729"
"compute050.int.augusta.nottingham.ac.uk.23730"
"compute050.int.augusta.nottingham.ac.uk.23731"
"compute050.int.augusta.nottingham.ac.uk.23732"
"compute050.int.augusta.nottingham.ac.uk.23733"
"compute050.int.augusta.nottingham.ac.uk.23734"
"compute050.int.augusta.nottingham.ac.uk.23735"
"compute050.int.augusta.nottingham.ac.uk.23736"
"compute051.int.augusta.nottingham.ac.uk.9268"
"compute051.int.augusta.nottingham.ac.uk.9269"
"compute051.int.augusta.nottingham.ac.uk.9270"
"compute051.int.augusta.nottingham.ac.uk.9271"
"compute051.int.augusta.nottingham.ac.uk.9272"
"compute051.int.augusta.nottingham.ac.uk.9273"
"compute051.int.augusta.nottingham.ac.uk.9274"
"compute051.int.augusta.nottingham.ac.uk.9277"
"compute051.int.augusta.nottingham.ac.uk.9279"
"compute051.int.augusta.nottingham.ac.uk.9280"
"compute051.int.augusta.nottingham.ac.uk.9281"
"compute051.int.augusta.nottingham.ac.uk.9282"
"compute052.int.augusta.nottingham.ac.uk.32220"
"compute052.int.augusta.nottingham.ac.uk.32221"
"compute052.int.augusta.nottingham.ac.uk.32222"
"compute052.int.augusta.nottingham.ac.uk.32223"
"compute052.int.augusta.nottingham.ac.uk.32224"
"compute052.int.augusta.nottingham.ac.uk.32225"
"compute052.int.augusta.nottingham.ac.uk.32226"
"compute052.int.augusta.nottingham.ac.uk.32227"
"compute052.int.augusta.nottingham.ac.uk.32228"
"compute052.int.augusta.nottingham.ac.uk.32229"
"compute052.int.augusta.nottingham.ac.uk.32230"
"compute052.int.augusta.nottingham.ac.uk.32231"
)

Pstream initialized with:
    floatTransfer      : 0
    nProcsSimpleSum    : 0
    commsType          : nonBlocking
    polling iterations : 0
sigFpe : Enabling floating point exception trapping (FOAM_SIGFPE).
fileModificationChecking : Monitoring run-time modified files using timeStampMaster (fileModificationSkew 10)
allowSystemOperations : Allowing user-supplied system call operations

// * * * * * * * * * * * * * * * * * * * * * * * * * * * * * * * * * * * * * //
Create time

Create mesh for time = 0


SIMPLE: Convergence criteria found
        p: tolerance 1e-10
        c: tolerance 1e-10


Reading g

Reading field p

Reading transportProperties

Reading field K

Reading/calculating face flux field phi

No finite volume options present

Starting time loop

Time = 100

DICPBiCGStab:  Solving for p, Initial residual = 1, Final residual = 9.6644e-07, No Iterations 501
Mean velocity  = (0.000273321 1.48838e-07 1.13263e-06)

ExecutionTime = 8.01 s  ClockTime = 8 s

Time = 200

DICPBiCGStab:  Solving for p, Initial residual = 5.12367e-07, Final residual = 4.40975e-13, No Iterations 403
Mean velocity  = (0.000273324 1.5024e-07 1.13147e-06)

ExecutionTime = 13.05 s  ClockTime = 14 s

Time = 300

DICPBiCGStab:  Solving for p, Initial residual = 5.0836e-13, Final residual = 4.52373e-16, No Iterations 247
Mean velocity  = (0.000273324 1.5024e-07 1.13147e-06)

ExecutionTime = 15.94 s  ClockTime = 16 s


SIMPLE solution converged in 300 iterations

End

Finalising parallel run
/*---------------------------------------------------------------------------*\
  =========                 |
  \\      /  F ield         | OpenFOAM: The Open Source CFD Toolbox
   \\    /   O peration     | Website:  https://openfoam.org
    \\  /    A nd           | Version:  8
     \\/     M anipulation  |
\*---------------------------------------------------------------------------*/
Build  : 8
Exec   : macroScalarTransport -parallel
Date   : Nov 04 2022
Time   : 17:33:09
Host   : "compute017.int.augusta.nottingham.ac.uk"
PID    : 86125
I/O    : uncollated
Case   : /gpfs01/home/pmxep5/PGSFlowTransport/tutorials/RESULTS/Herten/varMecDisp1e-4alpha
nProcs : 96
Slaves : 
95
(
"compute017.int.augusta.nottingham.ac.uk.86126"
"compute017.int.augusta.nottingham.ac.uk.86127"
"compute017.int.augusta.nottingham.ac.uk.86128"
"compute017.int.augusta.nottingham.ac.uk.86129"
"compute017.int.augusta.nottingham.ac.uk.86130"
"compute017.int.augusta.nottingham.ac.uk.86131"
"compute017.int.augusta.nottingham.ac.uk.86132"
"compute017.int.augusta.nottingham.ac.uk.86133"
"compute017.int.augusta.nottingham.ac.uk.86134"
"compute017.int.augusta.nottingham.ac.uk.86135"
"compute017.int.augusta.nottingham.ac.uk.86136"
"compute018.int.augusta.nottingham.ac.uk.202035"
"compute018.int.augusta.nottingham.ac.uk.202036"
"compute018.int.augusta.nottingham.ac.uk.202037"
"compute018.int.augusta.nottingham.ac.uk.202038"
"compute018.int.augusta.nottingham.ac.uk.202039"
"compute018.int.augusta.nottingham.ac.uk.202040"
"compute018.int.augusta.nottingham.ac.uk.202041"
"compute018.int.augusta.nottingham.ac.uk.202042"
"compute018.int.augusta.nottingham.ac.uk.202043"
"compute018.int.augusta.nottingham.ac.uk.202044"
"compute018.int.augusta.nottingham.ac.uk.202045"
"compute018.int.augusta.nottingham.ac.uk.202046"
"compute022.int.augusta.nottingham.ac.uk.90443"
"compute022.int.augusta.nottingham.ac.uk.90444"
"compute022.int.augusta.nottingham.ac.uk.90445"
"compute022.int.augusta.nottingham.ac.uk.90446"
"compute022.int.augusta.nottingham.ac.uk.90447"
"compute022.int.augusta.nottingham.ac.uk.90448"
"compute022.int.augusta.nottingham.ac.uk.90449"
"compute022.int.augusta.nottingham.ac.uk.90450"
"compute022.int.augusta.nottingham.ac.uk.90494"
"compute022.int.augusta.nottingham.ac.uk.90495"
"compute022.int.augusta.nottingham.ac.uk.90496"
"compute022.int.augusta.nottingham.ac.uk.90497"
"compute023.int.augusta.nottingham.ac.uk.217350"
"compute023.int.augusta.nottingham.ac.uk.217351"
"compute023.int.augusta.nottingham.ac.uk.217352"
"compute023.int.augusta.nottingham.ac.uk.217353"
"compute023.int.augusta.nottingham.ac.uk.217354"
"compute023.int.augusta.nottingham.ac.uk.217355"
"compute023.int.augusta.nottingham.ac.uk.217356"
"compute023.int.augusta.nottingham.ac.uk.217357"
"compute023.int.augusta.nottingham.ac.uk.217358"
"compute023.int.augusta.nottingham.ac.uk.217359"
"compute023.int.augusta.nottingham.ac.uk.217360"
"compute023.int.augusta.nottingham.ac.uk.217361"
"compute049.int.augusta.nottingham.ac.uk.110553"
"compute049.int.augusta.nottingham.ac.uk.110554"
"compute049.int.augusta.nottingham.ac.uk.110555"
"compute049.int.augusta.nottingham.ac.uk.110556"
"compute049.int.augusta.nottingham.ac.uk.110557"
"compute049.int.augusta.nottingham.ac.uk.110558"
"compute049.int.augusta.nottingham.ac.uk.110559"
"compute049.int.augusta.nottingham.ac.uk.110560"
"compute049.int.augusta.nottingham.ac.uk.110561"
"compute049.int.augusta.nottingham.ac.uk.110562"
"compute049.int.augusta.nottingham.ac.uk.110563"
"compute049.int.augusta.nottingham.ac.uk.110564"
"compute050.int.augusta.nottingham.ac.uk.45959"
"compute050.int.augusta.nottingham.ac.uk.46001"
"compute050.int.augusta.nottingham.ac.uk.46002"
"compute050.int.augusta.nottingham.ac.uk.46003"
"compute050.int.augusta.nottingham.ac.uk.46004"
"compute050.int.augusta.nottingham.ac.uk.46005"
"compute050.int.augusta.nottingham.ac.uk.46006"
"compute050.int.augusta.nottingham.ac.uk.46007"
"compute050.int.augusta.nottingham.ac.uk.46008"
"compute050.int.augusta.nottingham.ac.uk.46009"
"compute050.int.augusta.nottingham.ac.uk.46010"
"compute050.int.augusta.nottingham.ac.uk.46011"
"compute051.int.augusta.nottingham.ac.uk.9519"
"compute051.int.augusta.nottingham.ac.uk.9520"
"compute051.int.augusta.nottingham.ac.uk.9521"
"compute051.int.augusta.nottingham.ac.uk.9522"
"compute051.int.augusta.nottingham.ac.uk.9523"
"compute051.int.augusta.nottingham.ac.uk.9524"
"compute051.int.augusta.nottingham.ac.uk.9525"
"compute051.int.augusta.nottingham.ac.uk.9526"
"compute051.int.augusta.nottingham.ac.uk.9527"
"compute051.int.augusta.nottingham.ac.uk.9528"
"compute051.int.augusta.nottingham.ac.uk.9529"
"compute051.int.augusta.nottingham.ac.uk.9530"
"compute052.int.augusta.nottingham.ac.uk.50281"
"compute052.int.augusta.nottingham.ac.uk.50282"
"compute052.int.augusta.nottingham.ac.uk.50283"
"compute052.int.augusta.nottingham.ac.uk.50284"
"compute052.int.augusta.nottingham.ac.uk.50285"
"compute052.int.augusta.nottingham.ac.uk.50286"
"compute052.int.augusta.nottingham.ac.uk.50287"
"compute052.int.augusta.nottingham.ac.uk.50288"
"compute052.int.augusta.nottingham.ac.uk.50289"
"compute052.int.augusta.nottingham.ac.uk.50290"
"compute052.int.augusta.nottingham.ac.uk.50292"
"compute052.int.augusta.nottingham.ac.uk.50293"
)

Pstream initialized with:
    floatTransfer      : 0
    nProcsSimpleSum    : 0
    commsType          : nonBlocking
    polling iterations : 0
sigFpe : Enabling floating point exception trapping (FOAM_SIGFPE).
fileModificationChecking : Monitoring run-time modified files using timeStampMaster (fileModificationSkew 10)
allowSystemOperations : Allowing user-supplied system call operations

// * * * * * * * * * * * * * * * * * * * * * * * * * * * * * * * * * * * * * //
Create time

Create mesh for time = 0


SIMPLE: Convergence criteria found
        p: tolerance 1e-10
        c: tolerance 1e-10

Reading field c

Reading field U

Reading transportProperties

Reading diffusivity Dm

Reading outlet name

Reading porosity phi

Reading mechanical disp coeff alpha

Reading controlDict

Reading/calculating face flux field q

No finite volume options present

Calculating scalar transport

Courant Number mean: 0.583838 max: 8.06066
Mean vel = (0.000273324 1.5024e-07 1.13147e-06)

Adaptive time = 9.92457
DILUPBiCGStab:  Solving for c, Initial residual = 1, Final residual = 9.62091e-12, No Iterations 3
Total mass = 0.63353
Flux out = 0

Adaptive time = 19.8491
DILUPBiCGStab:  Solving for c, Initial residual = 0.201739, Final residual = 1.45685e-11, No Iterations 2
Total mass = 1.26696
Flux out = 1.39234e-193

Adaptive time = 29.7737
DILUPBiCGStab:  Solving for c, Initial residual = 0.112253, Final residual = 9.39959e-12, No Iterations 2
Total mass = 1.90029
Flux out = 1.90655e-191

Adaptive time = 39.6983
DILUPBiCGStab:  Solving for c, Initial residual = 0.0778123, Final residual = 7.23409e-12, No Iterations 2
Total mass = 2.53353
Flux out = 1.27157e-189

Adaptive time = 49.6229
DILUPBiCGStab:  Solving for c, Initial residual = 0.0595715, Final residual = 5.90405e-12, No Iterations 2
Total mass = 3.16671
Flux out = 5.63305e-188

Adaptive time = 59.5474
DILUPBiCGStab:  Solving for c, Initial residual = 0.0482769, Final residual = 4.94667e-12, No Iterations 2
Total mass = 3.79983
Flux out = 1.87549e-186

Adaptive time = 69.472
DILUPBiCGStab:  Solving for c, Initial residual = 0.0405949, Final residual = 4.22346e-12, No Iterations 2
Total mass = 4.43291
Flux out = 5.01504e-185

Adaptive time = 79.3966
DILUPBiCGStab:  Solving for c, Initial residual = 0.0350321, Final residual = 3.68497e-12, No Iterations 2
Total mass = 5.06597
Flux out = 1.12264e-183

Adaptive time = 89.3212
DILUPBiCGStab:  Solving for c, Initial residual = 0.030816, Final residual = 3.2401e-12, No Iterations 2
Total mass = 5.699
Flux out = 2.16449e-182

Adaptive time = 99.2457
DILUPBiCGStab:  Solving for c, Initial residual = 0.0275115, Final residual = 2.84944e-12, No Iterations 2
Total mass = 6.33202
Flux out = 3.66971e-181

Adaptive time = 109.17
DILUPBiCGStab:  Solving for c, Initial residual = 0.0248508, Final residual = 2.45651e-12, No Iterations 2
Total mass = 6.96502
Flux out = 5.55825e-180

Adaptive time = 119.095
DILUPBiCGStab:  Solving for c, Initial residual = 0.022663, Final residual = 2.072e-12, No Iterations 2
Total mass = 7.59802
Flux out = 7.61535e-179

Adaptive time = 129.019
DILUPBiCGStab:  Solving for c, Initial residual = 0.0208317, Final residual = 1.71815e-12, No Iterations 2
Total mass = 8.23101
Flux out = 9.5339e-178

Adaptive time = 138.944
DILUPBiCGStab:  Solving for c, Initial residual = 0.0192766, Final residual = 1.41564e-12, No Iterations 2
Total mass = 8.86399
Flux out = 1.09977e-176

Adaptive time = 148.869
DILUPBiCGStab:  Solving for c, Initial residual = 0.0179395, Final residual = 1.17461e-12, No Iterations 2
Total mass = 9.49697
Flux out = 1.17714e-175

Adaptive time = 158.793
DILUPBiCGStab:  Solving for c, Initial residual = 0.0167778, Final residual = 9.95192e-13, No Iterations 2
Total mass = 10.1299
Flux out = 1.17611e-174

Adaptive time = 168.718
DILUPBiCGStab:  Solving for c, Initial residual = 0.0157587, Final residual = 8.69617e-13, No Iterations 2
Total mass = 10.7629
Flux out = 1.10257e-173

Adaptive time = 178.642
DILUPBiCGStab:  Solving for c, Initial residual = 0.0148576, Final residual = 7.89343e-13, No Iterations 2
Total mass = 11.3959
Flux out = 9.74217e-173

Adaptive time = 188.567
DILUPBiCGStab:  Solving for c, Initial residual = 0.0140553, Final residual = 7.52484e-13, No Iterations 2
Total mass = 12.0288
Flux out = 8.14567e-172

Adaptive time = 198.491
DILUPBiCGStab:  Solving for c, Initial residual = 0.0133362, Final residual = 7.20263e-13, No Iterations 2
Total mass = 12.6618
Flux out = 6.46774e-171

Adaptive time = 208.416
DILUPBiCGStab:  Solving for c, Initial residual = 0.012688, Final residual = 6.8752e-13, No Iterations 2
Total mass = 13.2948
Flux out = 4.89225e-170

Adaptive time = 218.341
DILUPBiCGStab:  Solving for c, Initial residual = 0.0121007, Final residual = 6.53687e-13, No Iterations 2
Total mass = 13.9277
Flux out = 3.53538e-169

Adaptive time = 228.265
DILUPBiCGStab:  Solving for c, Initial residual = 0.0115662, Final residual = 6.20469e-13, No Iterations 2
Total mass = 14.5607
Flux out = 2.44716e-168

Adaptive time = 238.19
DILUPBiCGStab:  Solving for c, Initial residual = 0.0110777, Final residual = 5.90745e-13, No Iterations 2
Total mass = 15.1937
Flux out = 1.62636e-167

Adaptive time = 248.114
DILUPBiCGStab:  Solving for c, Initial residual = 0.0106293, Final residual = 5.69909e-13, No Iterations 2
Total mass = 15.8266
Flux out = 1.04004e-166

Adaptive time = 258.039
DILUPBiCGStab:  Solving for c, Initial residual = 0.0102163, Final residual = 5.67522e-13, No Iterations 2
Total mass = 16.4596
Flux out = 6.4126e-166

Adaptive time = 267.963
DILUPBiCGStab:  Solving for c, Initial residual = 0.00983488, Final residual = 5.74168e-13, No Iterations 2
Total mass = 17.0925
Flux out = 3.81937e-165

Adaptive time = 277.888
DILUPBiCGStab:  Solving for c, Initial residual = 0.00948137, Final residual = 5.90962e-13, No Iterations 2
Total mass = 17.7255
Flux out = 2.20133e-164

Adaptive time = 287.813
DILUPBiCGStab:  Solving for c, Initial residual = 0.0091528, Final residual = 6.18838e-13, No Iterations 2
Total mass = 18.3584
Flux out = 1.2298e-163

Adaptive time = 297.737
DILUPBiCGStab:  Solving for c, Initial residual = 0.00884671, Final residual = 6.58407e-13, No Iterations 2
Total mass = 18.9914
Flux out = 6.66995e-163

Adaptive time = 307.662
DILUPBiCGStab:  Solving for c, Initial residual = 0.00856075, Final residual = 7.10123e-13, No Iterations 2
Total mass = 19.6243
Flux out = 3.51721e-162

Adaptive time = 317.586
DILUPBiCGStab:  Solving for c, Initial residual = 0.00829313, Final residual = 7.70912e-13, No Iterations 2
Total mass = 20.2573
Flux out = 1.80587e-161

Adaptive time = 327.511
DILUPBiCGStab:  Solving for c, Initial residual = 0.00804211, Final residual = 8.38299e-13, No Iterations 2
Total mass = 20.8902
Flux out = 9.04037e-161

Adaptive time = 337.435
DILUPBiCGStab:  Solving for c, Initial residual = 0.00780613, Final residual = 9.09911e-13, No Iterations 2
Total mass = 21.5232
Flux out = 4.41859e-160

Adaptive time = 347.36
DILUPBiCGStab:  Solving for c, Initial residual = 0.00758394, Final residual = 9.82635e-13, No Iterations 2
Total mass = 22.1561
Flux out = 2.11128e-159

Adaptive time = 357.285
DILUPBiCGStab:  Solving for c, Initial residual = 0.00737433, Final residual = 1.0546e-12, No Iterations 2
Total mass = 22.7891
Flux out = 9.87495e-159

Adaptive time = 367.209
DILUPBiCGStab:  Solving for c, Initial residual = 0.0071762, Final residual = 1.12208e-12, No Iterations 2
Total mass = 23.422
Flux out = 4.52689e-158

Adaptive time = 377.134
DILUPBiCGStab:  Solving for c, Initial residual = 0.00698876, Final residual = 1.18405e-12, No Iterations 2
Total mass = 24.055
Flux out = 2.03651e-157

Adaptive time = 387.058
DILUPBiCGStab:  Solving for c, Initial residual = 0.00681111, Final residual = 1.23906e-12, No Iterations 2
Total mass = 24.6879
Flux out = 9.00193e-157

Adaptive time = 396.983
DILUPBiCGStab:  Solving for c, Initial residual = 0.00664245, Final residual = 1.28854e-12, No Iterations 2
Total mass = 25.3209
Flux out = 3.9146e-156

Adaptive time = 406.908
DILUPBiCGStab:  Solving for c, Initial residual = 0.00648224, Final residual = 1.33183e-12, No Iterations 2
Total mass = 25.9538
Flux out = 1.67678e-155

Adaptive time = 416.832
DILUPBiCGStab:  Solving for c, Initial residual = 0.00632975, Final residual = 1.36985e-12, No Iterations 2
Total mass = 26.5868
Flux out = 7.08323e-155

Adaptive time = 426.757
DILUPBiCGStab:  Solving for c, Initial residual = 0.00618444, Final residual = 1.40367e-12, No Iterations 2
Total mass = 27.2197
Flux out = 2.95446e-154

Adaptive time = 436.681
DILUPBiCGStab:  Solving for c, Initial residual = 0.00604591, Final residual = 1.4346e-12, No Iterations 2
Total mass = 27.8527
Flux out = 1.21823e-153

Adaptive time = 446.606
DILUPBiCGStab:  Solving for c, Initial residual = 0.00591362, Final residual = 1.46389e-12, No Iterations 2
Total mass = 28.4856
Flux out = 4.9715e-153

Adaptive time = 456.53
DILUPBiCGStab:  Solving for c, Initial residual = 0.00578713, Final residual = 1.49327e-12, No Iterations 2
Total mass = 29.1186
Flux out = 2.01016e-152

Adaptive time = 466.455
DILUPBiCGStab:  Solving for c, Initial residual = 0.00566615, Final residual = 1.52319e-12, No Iterations 2
Total mass = 29.7515
Flux out = 8.0615e-152

Adaptive time = 476.38
DILUPBiCGStab:  Solving for c, Initial residual = 0.00555027, Final residual = 1.55506e-12, No Iterations 2
Total mass = 30.3845
Flux out = 3.20974e-151

Adaptive time = 486.304
DILUPBiCGStab:  Solving for c, Initial residual = 0.00543915, Final residual = 1.58974e-12, No Iterations 2
Total mass = 31.0174
Flux out = 1.26994e-150

Adaptive time = 496.229
DILUPBiCGStab:  Solving for c, Initial residual = 0.00533258, Final residual = 1.62803e-12, No Iterations 2
Total mass = 31.6504
Flux out = 4.997e-150

Adaptive time = 506.153
DILUPBiCGStab:  Solving for c, Initial residual = 0.00523024, Final residual = 1.67056e-12, No Iterations 2
Total mass = 32.2833
Flux out = 1.95686e-149

Adaptive time = 516.078
DILUPBiCGStab:  Solving for c, Initial residual = 0.00513185, Final residual = 1.71791e-12, No Iterations 2
Total mass = 32.9163
Flux out = 7.63139e-149

Adaptive time = 526.002
DILUPBiCGStab:  Solving for c, Initial residual = 0.00503728, Final residual = 1.77111e-12, No Iterations 2
Total mass = 33.5492
Flux out = 2.96531e-148

Adaptive time = 535.927
DILUPBiCGStab:  Solving for c, Initial residual = 0.00494625, Final residual = 1.83099e-12, No Iterations 2
Total mass = 34.1822
Flux out = 1.14854e-147

Adaptive time = 545.852
DILUPBiCGStab:  Solving for c, Initial residual = 0.00485854, Final residual = 1.89809e-12, No Iterations 2
Total mass = 34.8151
Flux out = 4.43603e-147

Adaptive time = 555.776
DILUPBiCGStab:  Solving for c, Initial residual = 0.00477402, Final residual = 1.9721e-12, No Iterations 2
Total mass = 35.4481
Flux out = 1.70898e-146

Adaptive time = 565.701
DILUPBiCGStab:  Solving for c, Initial residual = 0.00469251, Final residual = 2.05166e-12, No Iterations 2
Total mass = 36.081
Flux out = 6.56867e-146

Adaptive time = 575.625
DILUPBiCGStab:  Solving for c, Initial residual = 0.00461382, Final residual = 2.13422e-12, No Iterations 2
Total mass = 36.714
Flux out = 2.51943e-145

Adaptive time = 585.55
DILUPBiCGStab:  Solving for c, Initial residual = 0.00453785, Final residual = 2.21659e-12, No Iterations 2
Total mass = 37.3469
Flux out = 9.64459e-145

Adaptive time = 595.474
DILUPBiCGStab:  Solving for c, Initial residual = 0.00446445, Final residual = 2.29552e-12, No Iterations 2
Total mass = 37.9799
Flux out = 3.68537e-144

Adaptive time = 605.399
DILUPBiCGStab:  Solving for c, Initial residual = 0.00439345, Final residual = 2.36946e-12, No Iterations 2
Total mass = 38.6128
Flux out = 1.40588e-143

Adaptive time = 615.324
DILUPBiCGStab:  Solving for c, Initial residual = 0.00432479, Final residual = 2.44033e-12, No Iterations 2
Total mass = 39.2458
Flux out = 5.35473e-143

Adaptive time = 625.248
DILUPBiCGStab:  Solving for c, Initial residual = 0.00425835, Final residual = 2.51377e-12, No Iterations 2
Total mass = 39.8787
Flux out = 2.03654e-142

Adaptive time = 635.173
DILUPBiCGStab:  Solving for c, Initial residual = 0.00419398, Final residual = 2.59718e-12, No Iterations 2
Total mass = 40.5117
Flux out = 7.73501e-142

Adaptive time = 645.097
DILUPBiCGStab:  Solving for c, Initial residual = 0.00413163, Final residual = 2.69589e-12, No Iterations 2
Total mass = 41.1446
Flux out = 2.93414e-141

Adaptive time = 655.022
DILUPBiCGStab:  Solving for c, Initial residual = 0.0040712, Final residual = 2.80989e-12, No Iterations 2
Total mass = 41.7776
Flux out = 1.11171e-140

Adaptive time = 664.946
DILUPBiCGStab:  Solving for c, Initial residual = 0.00401257, Final residual = 2.93224e-12, No Iterations 2
Total mass = 42.4105
Flux out = 4.20754e-140

Adaptive time = 674.871
DILUPBiCGStab:  Solving for c, Initial residual = 0.00395569, Final residual = 3.0501e-12, No Iterations 2
Total mass = 43.0435
Flux out = 1.59083e-139

Adaptive time = 684.796
DILUPBiCGStab:  Solving for c, Initial residual = 0.0039005, Final residual = 3.14227e-12, No Iterations 2
Total mass = 43.6764
Flux out = 6.00909e-139

Adaptive time = 694.72
DILUPBiCGStab:  Solving for c, Initial residual = 0.00384688, Final residual = 3.18478e-12, No Iterations 2
Total mass = 44.3093
Flux out = 2.2678e-138

Adaptive time = 704.645
DILUPBiCGStab:  Solving for c, Initial residual = 0.00379478, Final residual = 3.16146e-12, No Iterations 2
Total mass = 44.9423
Flux out = 8.55141e-138

Adaptive time = 714.569
DILUPBiCGStab:  Solving for c, Initial residual = 0.00374416, Final residual = 3.08778e-12, No Iterations 2
Total mass = 45.5752
Flux out = 3.22199e-137

Adaptive time = 724.494
DILUPBiCGStab:  Solving for c, Initial residual = 0.00369493, Final residual = 3.04875e-12, No Iterations 2
Total mass = 46.2082
Flux out = 1.21305e-136

Adaptive time = 734.418
DILUPBiCGStab:  Solving for c, Initial residual = 0.00364704, Final residual = 3.43789e-12, No Iterations 2
Total mass = 46.8411
Flux out = 4.56366e-136

Adaptive time = 744.343
DILUPBiCGStab:  Solving for c, Initial residual = 0.00360046, Final residual = 4.59537e-12, No Iterations 2
Total mass = 47.4741
Flux out = 1.71569e-135

Adaptive time = 754.268
DILUPBiCGStab:  Solving for c, Initial residual = 0.00355511, Final residual = 6.8943e-12, No Iterations 2
Total mass = 48.107
Flux out = 6.44554e-135

Adaptive time = 764.192
DILUPBiCGStab:  Solving for c, Initial residual = 0.00351093, Final residual = 1.1072e-11, No Iterations 2
Total mass = 48.74
Flux out = 2.41979e-134

Adaptive time = 774.117
DILUPBiCGStab:  Solving for c, Initial residual = 0.0034679, Final residual = 2.06338e-11, No Iterations 2
Total mass = 49.3729
Flux out = 9.07813e-134

Adaptive time = 784.041
DILUPBiCGStab:  Solving for c, Initial residual = 0.00342599, Final residual = 2.10238e-14, No Iterations 3
Total mass = 50.0059
Flux out = 3.40336e-133

Adaptive time = 793.966
DILUPBiCGStab:  Solving for c, Initial residual = 0.00338512, Final residual = 4.81429e-11, No Iterations 2
Total mass = 50.6388
Flux out = 1.27499e-132

Adaptive time = 803.89
DILUPBiCGStab:  Solving for c, Initial residual = 0.00334527, Final residual = 2.19844e-11, No Iterations 2
Total mass = 51.2718
Flux out = 4.77284e-132

Adaptive time = 813.815
DILUPBiCGStab:  Solving for c, Initial residual = 0.00330641, Final residual = 1.50329e-11, No Iterations 2
Total mass = 51.9047
Flux out = 1.78527e-131

Adaptive time = 823.74
DILUPBiCGStab:  Solving for c, Initial residual = 0.00326848, Final residual = 1.22958e-11, No Iterations 2
Total mass = 52.5377
Flux out = 6.67211e-131

Adaptive time = 833.664
DILUPBiCGStab:  Solving for c, Initial residual = 0.00323146, Final residual = 1.1066e-11, No Iterations 2
Total mass = 53.1706
Flux out = 2.49131e-130

Adaptive time = 843.589
DILUPBiCGStab:  Solving for c, Initial residual = 0.00319534, Final residual = 1.053e-11, No Iterations 2
Total mass = 53.8036
Flux out = 9.29308e-130

Adaptive time = 853.513
DILUPBiCGStab:  Solving for c, Initial residual = 0.00316006, Final residual = 1.0361e-11, No Iterations 2
Total mass = 54.4365
Flux out = 3.46274e-129

Adaptive time = 863.438
DILUPBiCGStab:  Solving for c, Initial residual = 0.00312559, Final residual = 1.05691e-11, No Iterations 2
Total mass = 55.0694
Flux out = 1.28873e-128

Adaptive time = 873.362
DILUPBiCGStab:  Solving for c, Initial residual = 0.00309192, Final residual = 1.09871e-11, No Iterations 2
Total mass = 55.7024
Flux out = 4.78992e-128

Adaptive time = 883.287
DILUPBiCGStab:  Solving for c, Initial residual = 0.00305902, Final residual = 1.13932e-11, No Iterations 2
Total mass = 56.3353
Flux out = 1.77771e-127

Adaptive time = 893.212
DILUPBiCGStab:  Solving for c, Initial residual = 0.00302684, Final residual = 1.17829e-11, No Iterations 2
Total mass = 56.9683
Flux out = 6.58714e-127

Adaptive time = 903.136
DILUPBiCGStab:  Solving for c, Initial residual = 0.00299538, Final residual = 1.21493e-11, No Iterations 2
Total mass = 57.6012
Flux out = 2.43648e-126

Adaptive time = 913.061
DILUPBiCGStab:  Solving for c, Initial residual = 0.00296461, Final residual = 1.24855e-11, No Iterations 2
Total mass = 58.2342
Flux out = 8.99471e-126

Adaptive time = 922.985
DILUPBiCGStab:  Solving for c, Initial residual = 0.00293451, Final residual = 1.27855e-11, No Iterations 2
Total mass = 58.8671
Flux out = 3.31351e-125

Adaptive time = 932.91
DILUPBiCGStab:  Solving for c, Initial residual = 0.00290506, Final residual = 1.30448e-11, No Iterations 2
Total mass = 59.5001
Flux out = 1.21783e-124

Adaptive time = 942.834
DILUPBiCGStab:  Solving for c, Initial residual = 0.00287623, Final residual = 1.326e-11, No Iterations 2
Total mass = 60.133
Flux out = 4.46481e-124

Adaptive time = 952.759
DILUPBiCGStab:  Solving for c, Initial residual = 0.00284801, Final residual = 1.34292e-11, No Iterations 2
Total mass = 60.766
Flux out = 1.63248e-123

Adaptive time = 962.684
DILUPBiCGStab:  Solving for c, Initial residual = 0.00282037, Final residual = 1.35503e-11, No Iterations 2
Total mass = 61.3989
Flux out = 5.9517e-123

Adaptive time = 972.608
DILUPBiCGStab:  Solving for c, Initial residual = 0.00279331, Final residual = 1.3623e-11, No Iterations 2
Total mass = 62.0319
Flux out = 2.1632e-122

Adaptive time = 982.533
DILUPBiCGStab:  Solving for c, Initial residual = 0.0027668, Final residual = 1.36473e-11, No Iterations 2
Total mass = 62.6648
Flux out = 7.83674e-122

Adaptive time = 992.457
DILUPBiCGStab:  Solving for c, Initial residual = 0.00274082, Final residual = 1.36239e-11, No Iterations 2
Total mass = 63.2977
Flux out = 2.82927e-121

Adaptive time = 1002.38
DILUPBiCGStab:  Solving for c, Initial residual = 0.00271536, Final residual = 1.35546e-11, No Iterations 2
Total mass = 63.9307
Flux out = 1.01774e-120

Adaptive time = 1012.31
DILUPBiCGStab:  Solving for c, Initial residual = 0.00269041, Final residual = 1.34413e-11, No Iterations 2
Total mass = 64.5636
Flux out = 3.64714e-120

Adaptive time = 1022.23
DILUPBiCGStab:  Solving for c, Initial residual = 0.00266594, Final residual = 1.32876e-11, No Iterations 2
Total mass = 65.1966
Flux out = 1.3018e-119

Adaptive time = 1032.16
DILUPBiCGStab:  Solving for c, Initial residual = 0.00264195, Final residual = 1.30965e-11, No Iterations 2
Total mass = 65.8295
Flux out = 4.6275e-119

Adaptive time = 1042.08
DILUPBiCGStab:  Solving for c, Initial residual = 0.00261842, Final residual = 1.28707e-11, No Iterations 2
Total mass = 66.4625
Flux out = 1.63793e-118

Adaptive time = 1052
DILUPBiCGStab:  Solving for c, Initial residual = 0.00259533, Final residual = 1.26145e-11, No Iterations 2
Total mass = 67.0954
Flux out = 5.7721e-118

Adaptive time = 1061.93
DILUPBiCGStab:  Solving for c, Initial residual = 0.00257268, Final residual = 1.23312e-11, No Iterations 2
Total mass = 67.7284
Flux out = 2.0249e-117

Adaptive time = 1071.85
DILUPBiCGStab:  Solving for c, Initial residual = 0.00255046, Final residual = 1.20248e-11, No Iterations 2
Total mass = 68.3613
Flux out = 7.0706e-117

Adaptive time = 1081.78
DILUPBiCGStab:  Solving for c, Initial residual = 0.00252865, Final residual = 1.16989e-11, No Iterations 2
Total mass = 68.9943
Flux out = 2.45721e-116

Adaptive time = 1091.7
DILUPBiCGStab:  Solving for c, Initial residual = 0.00250724, Final residual = 1.13569e-11, No Iterations 2
Total mass = 69.6272
Flux out = 8.49804e-116

Adaptive time = 1101.63
DILUPBiCGStab:  Solving for c, Initial residual = 0.00248621, Final residual = 1.10031e-11, No Iterations 2
Total mass = 70.2602
Flux out = 2.92447e-115

Adaptive time = 1111.55
DILUPBiCGStab:  Solving for c, Initial residual = 0.00246557, Final residual = 1.06413e-11, No Iterations 2
Total mass = 70.8931
Flux out = 1.00137e-114

Adaptive time = 1121.48
DILUPBiCGStab:  Solving for c, Initial residual = 0.0024453, Final residual = 1.02763e-11, No Iterations 2
Total mass = 71.5261
Flux out = 3.41133e-114

Adaptive time = 1131.4
DILUPBiCGStab:  Solving for c, Initial residual = 0.00242538, Final residual = 9.91095e-12, No Iterations 2
Total mass = 72.159
Flux out = 1.15614e-113

Adaptive time = 1141.33
DILUPBiCGStab:  Solving for c, Initial residual = 0.00240582, Final residual = 9.54899e-12, No Iterations 2
Total mass = 72.7919
Flux out = 3.89788e-113

Adaptive time = 1151.25
DILUPBiCGStab:  Solving for c, Initial residual = 0.0023866, Final residual = 9.19235e-12, No Iterations 2
Total mass = 73.4249
Flux out = 1.30724e-112

Adaptive time = 1161.18
DILUPBiCGStab:  Solving for c, Initial residual = 0.0023677, Final residual = 8.8423e-12, No Iterations 2
Total mass = 74.0578
Flux out = 4.36088e-112

Adaptive time = 1171.1
DILUPBiCGStab:  Solving for c, Initial residual = 0.00234913, Final residual = 8.50093e-12, No Iterations 2
Total mass = 74.6908
Flux out = 1.44699e-111

Adaptive time = 1181.02
DILUPBiCGStab:  Solving for c, Initial residual = 0.00233088, Final residual = 8.17011e-12, No Iterations 2
Total mass = 75.3237
Flux out = 4.7755e-111

Adaptive time = 1190.95
DILUPBiCGStab:  Solving for c, Initial residual = 0.00231293, Final residual = 7.85095e-12, No Iterations 2
Total mass = 75.9567
Flux out = 1.56755e-110

Adaptive time = 1200.87
DILUPBiCGStab:  Solving for c, Initial residual = 0.00229529, Final residual = 7.54427e-12, No Iterations 2
Total mass = 76.5896
Flux out = 5.11756e-110

Adaptive time = 1210.8
DILUPBiCGStab:  Solving for c, Initial residual = 0.00227794, Final residual = 7.25096e-12, No Iterations 2
Total mass = 77.2226
Flux out = 1.66164e-109

[...]
[6] 
FOAM parallel run exiting
[6] 
103.
[40] 
FOAM parallel run exiting
[40] 
[83] [24] [50] 
[50] 
[50] --> FOAM FATAL ERROR: 
[50] Concentration under the threshold
[50] 
[50] 
[50]     From function macroScalarTransport
[50]     in file macroScalarTransport.C at line 103.
[50] 
FOAM parallel run exiting
[50] 
[20] 
[20] 
[20] --> FOAM FATAL ERROR: 
[20] Concentration under the threshold
[85] [39] 
[39] 
[39] --> FOAM FATAL ERROR: 
[39] Concentration under the threshold
[39] 
[39] 
[39]     From function macroScalarTransport
[39]     in file macroScalarTransport.C at line 103.
[39] 
FOAM parallel run exiting
[39] 

[83] 
[83] --> FOAM FATAL ERROR: 
[83] Concentration under the threshold
[83] 
[83] 
[83]     From function macroScalarTransport
[83] 
[24] 
[24] --> FOAM FATAL ERROR: 
[24] Concentration under the threshold
[24] 
[51] 
[51] 
[51] --> FOAM FATAL ERROR: 
[51] Concentration under the threshold
[51] 
[51] 
[51]     From function macroScalarTransport
[51]     in file macroScalarTransport.C at line 103.
[51] 
FOAM parallel run exiting
[51] 
[20] 
[20] 
[20]     From function macroScalarTransport
[20]     in file macroScalarTransport.C at line 103.
[20] 
FOAM parallel run exiting
[20] 
[87]     in file macroScalarTransport.C at line 103.
[83] 
FOAM parallel run exiting
[83] 
[24] 
[24]     From function macroScalarTransport
[24]     in file macroScalarTransport.C at line 103.
[24] 
FOAM parallel run exiting
[24] 
[52] 
[52] 
[52] --> FOAM FATAL ERROR: 
[52] Concentration under the threshold
[52] 
[52] 
[52]     From function macroScalarTransport
[52]     in file macroScalarTransport.C at line 103.
[52] 
FOAM parallel run exiting
[52] 
[95] [38] [73] [27] [59] 
[89] 
[38] 
[38] --> FOAM FATAL ERROR: 
[38] Concentration under the threshold
[38] 
[38] 
[38] 
[73] 
[73] --> FOAM FATAL ERROR: 
[73] Concentration under the threshold
[73] 

[27] 
[27] --> FOAM FATAL ERROR: 
[27] Concentration under the threshold
[59] 
[59] --> FOAM FATAL ERROR: 
[59] Concentration under the threshold
[59] 
[59] 
[59]     From function macroScalarTransport
[59]     in file macroScalarTransport.C at line 103.
[59] 
FOAM parallel run exiting
[59] 
[17] 
[17] 
[17] --> FOAM FATAL ERROR: 
[17] Concentration under the threshold
[17] 
[17] 
[17]     From function macroScalarTransport
[17]     in file macroScalarTransport.C at line 103.
[17] 
FOAM parallel run exiting
[17] 
[90] [compute017.int.augusta.nottingham.ac.uk:86100] PMIX ERROR: UNREACHABLE in file server/pmix_server.c at line 2193
[compute017.int.augusta.nottingham.ac.uk:86100] PMIX ERROR: UNREACHABLE in file server/pmix_server.c at line 2193
[compute017.int.augusta.nottingham.ac.uk:86100] PMIX ERROR: UNREACHABLE in file server/pmix_server.c at line 2193
[compute017.int.augusta.nottingham.ac.uk:86100] PMIX ERROR: UNREACHABLE in file server/pmix_server.c at line 2193
[compute017.int.augusta.nottingham.ac.uk:86100] PMIX ERROR: UNREACHABLE in file server/pmix_server.c at line 2193
[compute017.int.augusta.nottingham.ac.uk:86100] PMIX ERROR: UNREACHABLE in file server/pmix_server.c at line 2193
[compute017.int.augusta.nottingham.ac.uk:86100] PMIX ERROR: UNREACHABLE in file server/pmix_server.c at line 2193
[compute017.int.augusta.nottingham.ac.uk:86100] PMIX ERROR: UNREACHABLE in file server/pmix_server.c at line 2193
[compute017.int.augusta.nottingham.ac.uk:86100] PMIX ERROR: UNREACHABLE in file server/pmix_server.c at line 2193
[compute017.int.augusta.nottingham.ac.uk:86100] PMIX ERROR: UNREACHABLE in file server/pmix_server.c at line 2193
[53] [92]     From function macroScalarTransport
[38]     in file macroScalarTransport.C at line 103.
[38] 
FOAM parallel run exiting
[38] 
[73] 
[73]     From function macroScalarTransport
[73]     in file macroScalarTransport.C at line 103.
[73] 
FOAM parallel run exiting
[73] 
[27] 
[27] 
[27]     From function macroScalarTransport
[27]     in file macroScalarTransport.C at line 103.
[27] 
FOAM parallel run exiting
[27] 
[1] 
[1] 
[1] --> FOAM FATAL ERROR: 
[1] Concentration under the threshold
[1] 
[1] 
[1]     From function macroScalarTransport
[1]     in file macroScalarTransport.C at line 103.
[1] 
FOAM parallel run exiting
[1] 
[7] 
[7] 
[7] --> FOAM FATAL ERROR: 
[7] Concentration under the threshold
[7] 
[7] 
[7]     From function macroScalarTransport
[7]     in file macroScalarTransport.C at line 103.
[7] 
FOAM parallel run exiting
[7] 
[8] 
[8] 
[8] --> FOAM FATAL ERROR: 
[8] Concentration under the threshold
[8] 
[8] 
[8]     From function macroScalarTransport
[8]     in file macroScalarTransport.C at line 103.
[8] 
FOAM parallel run exiting
[8] 
[64] 
[64] 
[64] --> FOAM FATAL ERROR: 
[64] Concentration under the threshold
[64] 
[64] 
[64]     From function macroScalarTransport
[64]     in file macroScalarTransport.C at line 103.
[64] 
FOAM parallel run exiting
[64] 
[93] [78] [26] 
[53] 
[53] --> FOAM FATAL ERROR: 
[53] Concentration under the threshold
[53] 
[53] 
[53]     From function macroScalarTransport
[53]     in file macroScalarTransport.C at line 103.
[53] 
FOAM parallel run exiting
[53] 
[23] 
[23] 
[23] --> FOAM FATAL ERROR: 
[23] Concentration under the threshold
[23] 
[23] 
[23]     From function macroScalarTransport
[23]     in file macroScalarTransport.C at line 103.
[23] 
FOAM parallel run exiting
[23] 
[66] 
[94] [37] 
[37] 
[37] --> FOAM FATAL ERROR: 
[37] Concentration under the threshold
[37] 
[37] 
[37]     From function macroScalarTransport
[37]     in file macroScalarTransport.C
[78] 
[78] 
[26] 
[26] --> FOAM FATAL ERROR: 
[26] Concentration under the threshold
 at line 103.
[37] 
FOAM parallel run exiting
[37] 
--> FOAM FATAL ERROR: 
[78] Concentration under the threshold
[78] 
[78] 
[78]     From function macroScalarTransport
[78]     in file macroScalarTransport.C at line 103.
[26] 
[26] 
[26]     From function macroScalarTransport
[26]     in file macroScalarTransport.C at line 103.
[19] [66] 
[66] --> FOAM FATAL ERROR: 
[66] Concentration under the threshold
[66] 
[66] 
[66]     From function macroScalarTransport
[66]     in file macroScalarTransport.C at line [86] 
[19] 
[19] --> FOAM FATAL ERROR: 
[19] Concentration under the threshold
[19] 
[19] 
[19]     From function macroScalarTransport103.
[66] 
FOAM parallel run exiting
[66] 

[94] 
[94] --> FOAM FATAL ERROR: 
[94] Concentration under the threshold
[94] 
[94] 
[94]     From function [43] 
[78] 
FOAM parallel run exiting
[78] 
[26] 
FOAM parallel run exiting
[26] 
[43] 
[43] --> FOAM FATAL ERROR: 
[43] Concentration under the threshold
[43] 
[43] 
[43]     From function macroScalarTransport
[43]     in file macroScalarTransport.C at line [80] [34] 
[19]     in file macroScalarTransport.C at line 103.
[19] 
FOAM parallel run exiting
[19] 
[68] 
[86] 
[86] --> FOAM FATAL ERROR: 
[86] Concentration under the threshold
[86] 
[86] 
[86]     From function macroScalarTransport
[86]     in file macroScalarTransport.C at line 
[80] 
[80] --> FOAM FATAL ERROR: 

[68] 
[68] 
[88] 
[88] --> FOAM FATAL ERROR: 
[88] Concentration under the threshold
[88] 
[88] 
[88]     From function macroScalarTransport
[88]     in file macroScalarTransport.C at line 103.
[88] 
FOAM parallel run exiting
[88] 
103.
[43] 
FOAM parallel run exiting
[43] 
[80] Concentration under the threshold
[80] 
[80] 
[80]     From function macroScalarTransport
[80]     in file macroScalarTransport.C at line 103.
[80] 
FOAM parallel run exiting
[80] 
--> FOAM FATAL ERROR: 
[68] Concentration under the threshold
[68] 
[68] 
[68]     From function macroScalarTransport
[68]     in file macroScalarTransport.C at line 103.
[86] 
FOAM parallel run exiting
[86] 

[34] 
[34] --> FOAM FATAL ERROR: 
[34] Concentration under the threshold
[34] 
[34] 
[34]     From function macroScalarTransport
103.
[68] 
FOAM parallel run exiting
[68] 
macroScalarTransport
[94]     in file macroScalarTransport.C at line 103.
[94] 
FOAM parallel run exiting
[94] 
[72] 
[72] 
[72] --> FOAM FATAL ERROR: 
[72] Concentration under the threshold
[72] 
[72] 
[72] [56] 
[56] 
[56] --> FOAM FATAL ERROR: 
[56] Concentration under the threshold
[56] 
[56] 
[15] 
[71] 
[87] 
[87] --> FOAM FATAL ERROR: 
[87] Concentration under the threshold
[87] 
[87] 
[87]     From function macroScalarTransport
[87]     in file macroScalarTransport.C at line 103.
[87] 
FOAM parallel run exiting
[87] 
    From function macroScalarTransport
[72]     in file macroScalarTransport.C at line 103.
[72] 
FOAM parallel run exiting
[72] 
[56]     From function macroScalarTransport
[56]     in file macroScalarTransport.C at line 103.
[56] 
FOAM parallel run exiting
[56] 
[15] 
[15] --> FOAM FATAL ERROR: 
[15] Concentration under the threshold
[15] 
[15] 
[15]     From function macroScalarTransport
[15]     in file macroScalarTransport.C
[71] 
[71] --> FOAM FATAL ERROR: 
[71] Concentration under the threshold
[71] 
[71] 
[71] 
[95] 
[95] --> FOAM FATAL ERROR: 
[95] Concentration under the threshold
[95] 
[95] 
[95]     From function macroScalarTransport
[95]     in file macroScalarTransport.C at line 103.
[95] 
FOAM parallel run exiting
[95] 
[77] [34]     in file macroScalarTransport.C at line 103.
[34] 
FOAM parallel run exiting
[34] 
 at line 103.
[15] 
FOAM parallel run exiting
[15] 
    From function macroScalarTransport
[71]     in file macroScalarTransport.C at line 103.
[71] 
FOAM parallel run exiting
[71] 

[89] 
[89] --> FOAM FATAL ERROR: 
[89] Concentration under the threshold
[89] 
[89] 
[89]     From function macroScalarTransport
[89]     in file macroScalarTransport.C at line 103.
[89] 
FOAM parallel run exiting
[89] 
[41] 
[41] 
[41] --> FOAM FATAL ERROR: 
[41] Concentration under the threshold
[41] 
[41] 
[49] 
[69] 
[90] 
[90] --> FOAM FATAL ERROR: 
[90] Concentration under the threshold
[90] 
[90] 
[90]     From function macroScalarTransport
[90]     in file macroScalarTransport.C at line 103.
[90] 
FOAM parallel run exiting
[90] 
[25] [49] 
[49] --> FOAM FATAL ERROR: 
[49] Concentration under the threshold
[49] 
[49] 
[49]     From function macroScalarTransport
[49]     in file macroScalarTransport.C at line 103.
[49] 
FOAM parallel run exiting
[49] 
[21] 
[69] 

[92] 
[92] --> FOAM FATAL ERROR: 
[92] Concentration under the threshold
[92] 
[92] 
[92]     From function macroScalarTransport
[92]     in file macroScalarTransport.C at line 103.
[92] 
FOAM parallel run exiting
[92] 

[41]     From function macroScalarTransport
[41]     in file macroScalarTransport.C at line 103[77] 
[77] --> FOAM FATAL ERROR: 
[77] Concentration under the threshold
[77] 
[77] 
[77]     From function macroScalarTransport
.
[41] 
FOAM parallel run exiting
[41] 
[77]     in file macroScalarTransport.C at line 103.
[77] 
FOAM parallel run exiting
[77] 

[25] 
[18] 
[69] --> FOAM FATAL ERROR: 
[69] Concentration under the threshold
[69] 
[69] 
[69]     From function macroScalarTransport
[69]     in file macroScalarTransport.C at line 
[93] 
[93] --> FOAM FATAL ERROR: 
[93] Concentration under the threshold
[93] 
[93] 
[93]     From function macroScalarTransport
[93]     in file macroScalarTransport.C at line 103.
[93] 
FOAM parallel run exiting
[93] 
[55] 
[21] 
[21] --> FOAM FATAL ERROR: 
[21] Concentration under the threshold
[21] 
[21] 
[21]     From function macroScalarTransport
[21]     in file macroScalarTransport.C at line 103.
[69] 
FOAM parallel run exiting
[69] 

[85] 
[85] --> FOAM FATAL ERROR: 
[85] Concentration under the threshold
[85] 
[85] 
[85]     From function macroScalarTransport
[75] [25] --> FOAM FATAL ERROR: 
[25] Concentration under the threshold
[25] 
[25] 
[25]     From function macroScalarTransport
[25]     in file [18] 
[18] --> FOAM FATAL ERROR: 
[18] Concentration under the threshold
[18] 
[18] 
[18]     From function macroScalarTransport
[18]     in file [70] [85]     in file macroScalarTransport.C at line 103.
[85] 
FOAM parallel run exiting
[85] 
[42] 
[75] 
[75] --> FOAM FATAL ERROR: 
[75] Concentration under the threshold
[75] macroScalarTransport.C at line 103.
[25] 
FOAM parallel run exiting
[25] 

[55] 
[55] --> FOAM FATAL ERROR: 
[55] Concentration under the threshold
[55] 
[55] 
[55]     From function macroScalarTransport
[55]     in file macroScalarTransport.C at line 103
[42] 
[42] --> FOAM FATAL ERROR: 
[42] Concentration under the threshold
[42] 

[75] 
[75]     From function macroScalarTransport
[75]     in file macroScalarTransport.C at line 103.
.
[55] 
FOAM parallel run exiting
[55] 
103.
[21] 
FOAM parallel run exiting
[21] 

[70] 
[70] --> FOAM FATAL ERROR: 
[70] Concentration under the threshold
[70] 
[70] 
[70]     From function macroScalarTransport
[70]     in file [42] 
[42]     From function macroScalarTransport
[42]     in file macroScalarTransport.C at line 103.
[42] 
FOAM parallel run exiting
[42] 
[75] 
FOAM parallel run exiting
[75] 
macroScalarTransport.C at line 103.
[18] 
FOAM parallel run exiting
[18] 
[44] 
[44] 
[82] [33] [57] macroScalarTransport.C at line 103.
[70] 
FOAM parallel run exiting
[70] 
[44] --> FOAM FATAL ERROR: 
[44] Concentration under the threshold
[44] 
[44] 
[44]     From function macroScalarTransport
[44]     in file macroScalarTransport.C
[82] 
[82] --> FOAM FATAL ERROR: 

[33] 
[33] --> FOAM FATAL ERROR: 
[33] Concentration under the threshold
[33] 
[33] 
[57] 
[57] --> FOAM FATAL ERROR: 
[57] Concentration under the threshold
[57] 
 at line 103.
[44] 
FOAM parallel run exiting
[44] 
[82] Concentration under the threshold
[82] 
[82] 
[82]     From function macroScalarTransport
[82]     in file macroScalarTransport.C at line 103.
[82] 
FOAM parallel run exiting
[82] 
[29] 
[29] 
[29] --> FOAM FATAL ERROR: 
[29] Concentration under the threshold
[29] [57] 
[57]     From function macroScalarTransport
[57]     in file macroScalarTransport.C at line 103.
[57] 
FOAM parallel run exiting
[57] 
[13] 
[13] 
[13] --> FOAM FATAL ERROR: 
[13] Concentration under the threshold
[13] [79] 
[33]     From function macroScalarTransport
[33]     in file macroScalarTransport.C at line 103.
[33] 
FOAM parallel run exiting
[33] 


[29] 
[29]     From function macroScalarTransport
[29]     in file macroScalarTransport.C at line 103.
[29] 
FOAM parallel run exiting
[29] 
[54] 
[13] 
[13]     From function macroScalarTransport
[13]     in file macroScalarTransport.C at line 
[54] 
[54] --> FOAM FATAL ERROR: 
[54] Concentration under the threshold
[54] 
[54] 
[54]     From function macroScalarTransport
[54]     in file macroScalarTransport.C at line 103.
[54] 
FOAM parallel run exiting
[54] 
103.
[13] 
FOAM parallel run exiting
[13] 
[47] [79] 
[79] --> FOAM FATAL ERROR: 
[79] Concentration under the threshold
[79] 
[79] 
[79]     From function macroScalarTransport

[47] 
[47] --> FOAM FATAL ERROR: 
[47] Concentration under the threshold
[47] [79]     in file macroScalarTransport.C at line 103.
[79] 
FOAM parallel run exiting
[79] 
[48] [22] 
[47] 
[47]     From function macroScalarTransport
[47]     in file macroScalarTransport.C at line 103.
[47] [30] 
[22] 
[22] --> FOAM FATAL ERROR: 
[22] [63] 
FOAM parallel run exiting
[47] 

[30] 
[30] --> FOAM FATAL ERROR: 

[48] 
[48] --> FOAM FATAL ERROR: 
[48] Concentration under the threshold
[48] 
[48] 
[48]     From function macroScalarTransport
[48]     in file macroScalarTransport.C at line 103.
[48] 
FOAM parallel run exiting
[48] 

[63] 
[63] --> FOAM FATAL ERROR: 
[63] Concentration under the threshold
[63] 
[63] 
[63] [91] [36] [30] Concentration under the threshold
[30] 
[30] 
[30]     From function macroScalarTransport
[30]     in file macroScalarTransport.C at line 103Concentration under the threshold
[22] 
[22] 
[22]     From function macroScalarTransport
[22]     in file macroScalarTransport.C at line 103.
[22] 
FOAM parallel run exiting
[22] 
.
[30] 
FOAM parallel run exiting
[30] 
    From function macroScalarTransport
[63]     in file macroScalarTransport.C at line 103.
[63] 
FOAM parallel run exiting
[63] 

[91] 
[91] --> FOAM FATAL ERROR: 
[91] Concentration under the threshold
[91] 
[91] 
[91]     From function macroScalarTransport
[36] 
[36] --> FOAM FATAL ERROR: 
[36] Concentration under the threshold
[36] 
[14] 
[91]     in file macroScalarTransport.C at line 103.
[91] 
FOAM parallel run exiting
[91] [36] 
[36]     From function macroScalarTransport
[36]     in file macroScalarTransport.C at line 103.
[36] 
FOAM parallel run exiting
[36] 

[14] 
[14] --> FOAM FATAL ERROR: 
[14] Concentration under the threshold
[14] 
[14] 
[14]     From function macroScalarTransport
[14]     in file macroScalarTransport.C at line 103.
[14] 
FOAM parallel run exiting
[14] 
[67] 
[35] 
[35] 
[35] --> FOAM FATAL ERROR: 
[35] Concentration under the threshold
[35] 
[35] 
[35]     From function macroScalarTransport
[35]     in file macroScalarTransport.C at line 
[67] 
[67] --> FOAM FATAL ERROR: 
[67] Concentration under the threshold
[67] 
[67] 
[67]     From function macroScalarTransport[12] 

[67]     in file macroScalarTransport.C at line 103.
[67] 
FOAM parallel run exiting
[67] 
[84] [46] 103.
[35] 
FOAM parallel run exiting
[35] 
[12] 
[12] --> FOAM FATAL ERROR: 
[12] Concentration under the threshold
[12] 
[12] 
[12]     From function macroScalarTransport
[12]     in file macroScalarTransport.C at line 103.
[12] 
FOAM parallel run exiting
[12] 

[84] 
[84] --> FOAM FATAL ERROR: 
[84] Concentration under the threshold
[84] 
[84] 
[84]     From function macroScalarTransport
[84]     in file macroScalarTransport.C at line 103.
[84] 
FOAM parallel run exiting
[84] 

[46] 
[46] --> FOAM FATAL ERROR: 
[46] Concentration under the threshold
[46] 
[46] 
[46]     From function macroScalarTransport
[46]     in file macroScalarTransport.C[61]  at line 103.
[46] 
FOAM parallel run exiting
[46] 
[28] 
[28] 
[28] --> FOAM FATAL ERROR: 
[28] Concentration under the threshold
[28] 
[28] 
[28]     From function macroScalarTransport
[28]     in file macroScalarTransport.C at line 
[61] 
[61] 103.
[28] 
FOAM parallel run exiting
[28] 
--> FOAM FATAL ERROR: 
[61] Concentration under the threshold
[61] 
[61] 
[61]     From function macroScalarTransport
[61]     in file macroScalarTransport.C[45] 
[45] 
[45] --> FOAM FATAL ERROR: 
[45] Concentration under the threshold
[45] 
[45] 
[45]     From function macroScalarTransport
[45]     in file macroScalarTransport.C at line 103.
[61] 
FOAM parallel run exiting
[61] 
[32]  at line 103.
[45] 
FOAM parallel run exiting
[45] 
[74] 
[74] 
[74] --> FOAM FATAL ERROR: 
[74] Concentration under the threshold
[74] 
[74] 
[74]     From function macroScalarTransport
[74]     in file macroScalarTransport.C at line 103.
[74] 
FOAM parallel run exiting
[74] 

[32] 
[32] --> FOAM FATAL ERROR: 
[32] Concentration under the threshold
[32] 
[32] 
[32]     From function macroScalarTransport
[32]     in file macroScalarTransport.C at line 103.
[32] 
FOAM parallel run exiting
[32] 
[60] 
[76] 
[76] 
[76] --> FOAM FATAL ERROR: 
[76] Concentration under the threshold
[76] 
[76] 
[76]     From function macroScalarTransport
[76]     in file macroScalarTransport.C at line 103.
[76] 
FOAM parallel run exiting
[76] 
[60] 
[60] --> FOAM FATAL ERROR: 
[60] Concentration under the threshold
[60] 
[60] 
[60]     From function macroScalarTransport
[60]     in file macroScalarTransport.C at line 103.
[60] 
FOAM parallel run exiting
[60] 
[65] 
[65] 
[65] --> FOAM FATAL ERROR: 
[65] Concentration under the threshold
[65] 
[65] 
[65]     From function macroScalarTransport
[65]     in file macroScalarTransport.C at line 103.
[65] 
FOAM parallel run exiting
[65] 
[62] 
[62] 
[62] --> FOAM FATAL ERROR: 
[62] Concentration under the threshold
[62] 
[62] 
[62]     From function macroScalarTransport
[62]     in file macroScalarTransport.C at line 103.
[62] 
FOAM parallel run exiting
[62] 
[compute017.int.augusta.nottingham.ac.uk:86100] 95 more processes have sent help message help-mpi-api.txt / mpi-abort
[compute017.int.augusta.nottingham.ac.uk:86100] Set MCA parameter "orte_base_help_aggregate" to 0 to see all help / error messages
