/*---------------------------------------------------------------------------*\
  =========                 |
  \\      /  F ield         | OpenFOAM: The Open Source CFD Toolbox
   \\    /   O peration     | Website:  https://openfoam.org
    \\  /    A nd           | Version:  8
     \\/     M anipulation  |
\*---------------------------------------------------------------------------*/
Build  : 8-1c9b5879390b
Exec   : postProcess -parallel -dict system/fieldMetricsDict -field T
Date   : Sep 07 2022
Time   : 18:42:15
Host   : "gercphd"
PID    : 10882
I/O    : uncollated
Case   : /data/pmxep5-8/PGSFlowTransport/tutorials/RESULTS/stopConcAdapTmstp/scat_5-lowContrast/TS1
nProcs : 12
Slaves : 
11
(
"gercphd.10883"
"gercphd.10884"
"gercphd.10885"
"gercphd.10886"
"gercphd.10887"
"gercphd.10888"
"gercphd.10889"
"gercphd.10890"
"gercphd.10891"
"gercphd.10892"
"gercphd.10893"
)

Pstream initialized with:
    floatTransfer      : 0
    nProcsSimpleSum    : 0
    commsType          : nonBlocking
    polling iterations : 0
sigFpe : Enabling floating point exception trapping (FOAM_SIGFPE).
fileModificationChecking : Monitoring run-time modified files using timeStampMaster (fileModificationSkew 10)
allowSystemOperations : Allowing user-supplied system call operations

// * * * * * * * * * * * * * * * * * * * * * * * * * * * * * * * * * * * * * //
Create time

Create mesh for time = 0

Time = 0

Reading fields:
    volScalarFields: T

Executing functionObjects
Computing meanAndVariance on T
Time=0 Mean=0 Var=0
meanAndVariance written to "/data/pmxep5-8/PGSFlowTransport/tutorials/RESULTS/stopConcAdapTmstp/scat_5-lowContrast/TS1/processor0/../postProcessing/fieldMetrics/0"
Computing meanAndVariance of position wrt field T
Time=0 MeanConcX=0 VarConcX=0 MeanConcY=0 VarConcY=0 MeanConcZ=0 VarConcZ=0
meanAndVarianceConc written to "/data/pmxep5-8/PGSFlowTransport/tutorials/RESULTS/stopConcAdapTmstp/scat_5-lowContrast/TS1/processor0/../postProcessing/fieldMetrics/0"

Time = 300

Reading fields:

Executing functionObjects
There is no field T

Time = 11510.8

Reading fields:
    volScalarFields: T

Executing functionObjects
Computing meanAndVariance on T
Time=11510.8 Mean=0.0050606 Var=0.00349048
meanAndVariance written to "/data/pmxep5-8/PGSFlowTransport/tutorials/RESULTS/stopConcAdapTmstp/scat_5-lowContrast/TS1/processor0/../postProcessing/fieldMetrics/11510.8"
Computing meanAndVariance of position wrt field T
Time=11510.8 MeanConcX=0.0214718 VarConcX=0.000335297 MeanConcY=0.486906 VarConcY=0.0785467 MeanConcZ=0.483461 VarConcZ=0.0800053
meanAndVarianceConc written to "/data/pmxep5-8/PGSFlowTransport/tutorials/RESULTS/stopConcAdapTmstp/scat_5-lowContrast/TS1/processor0/../postProcessing/fieldMetrics/11510.8"

Time = 23381.3

Reading fields:
    volScalarFields: T

Executing functionObjects
Computing meanAndVariance on T
Time=23381.3 Mean=0.0100721 Var=0.00708001
meanAndVariance written to "/data/pmxep5-8/PGSFlowTransport/tutorials/RESULTS/stopConcAdapTmstp/scat_5-lowContrast/TS1/processor0/../postProcessing/fieldMetrics/23381.3"
Computing meanAndVariance of position wrt field T
Time=23381.3 MeanConcX=0.038069 VarConcX=0.00106531 MeanConcY=0.486934 VarConcY=0.0785866 MeanConcZ=0.483631 VarConcZ=0.0801426
meanAndVarianceConc written to "/data/pmxep5-8/PGSFlowTransport/tutorials/RESULTS/stopConcAdapTmstp/scat_5-lowContrast/TS1/processor0/../postProcessing/fieldMetrics/23381.3"

Time = 35611.5

Reading fields:
    volScalarFields: T

Executing functionObjects
Computing meanAndVariance on T
Time=35611.5 Mean=0.0150409 Var=0.0104304
meanAndVariance written to "/data/pmxep5-8/PGSFlowTransport/tutorials/RESULTS/stopConcAdapTmstp/scat_5-lowContrast/TS1/processor0/../postProcessing/fieldMetrics/35611.5"
Computing meanAndVariance of position wrt field T
Time=35611.5 MeanConcX=0.0533904 VarConcX=0.00208823 MeanConcY=0.486536 VarConcY=0.0786486 MeanConcZ=0.4833 VarConcZ=0.0802819
meanAndVarianceConc written to "/data/pmxep5-8/PGSFlowTransport/tutorials/RESULTS/stopConcAdapTmstp/scat_5-lowContrast/TS1/processor0/../postProcessing/fieldMetrics/35611.5"

Time = 48561.2

Reading fields:
    volScalarFields: T

Executing functionObjects
Computing meanAndVariance on T
Time=48561.2 Mean=0.0201067 Var=0.01368
meanAndVariance written to "/data/pmxep5-8/PGSFlowTransport/tutorials/RESULTS/stopConcAdapTmstp/scat_5-lowContrast/TS1/processor0/../postProcessing/fieldMetrics/48561.2"
Computing meanAndVariance of position wrt field T
Time=48561.2 MeanConcX=0.0679682 VarConcX=0.00336754 MeanConcY=0.486074 VarConcY=0.0787958 MeanConcZ=0.482991 VarConcZ=0.080334
meanAndVarianceConc written to "/data/pmxep5-8/PGSFlowTransport/tutorials/RESULTS/stopConcAdapTmstp/scat_5-lowContrast/TS1/processor0/../postProcessing/fieldMetrics/48561.2"

Time = 61510.8

Reading fields:
    volScalarFields: T

Executing functionObjects
Computing meanAndVariance on T
Time=61510.8 Mean=0.0250347 Var=0.0167319
meanAndVariance written to "/data/pmxep5-8/PGSFlowTransport/tutorials/RESULTS/stopConcAdapTmstp/scat_5-lowContrast/TS1/processor0/../postProcessing/fieldMetrics/61510.8"
Computing meanAndVariance of position wrt field T
Time=61510.8 MeanConcX=0.0812579 VarConcX=0.00478813 MeanConcY=0.485779 VarConcY=0.0789711 MeanConcZ=0.482766 VarConcZ=0.0803237
meanAndVarianceConc written to "/data/pmxep5-8/PGSFlowTransport/tutorials/RESULTS/stopConcAdapTmstp/scat_5-lowContrast/TS1/processor0/../postProcessing/fieldMetrics/61510.8"

Time = 75179.9

Reading fields:
    volScalarFields: T

Executing functionObjects
Computing meanAndVariance on T
Time=75179.9 Mean=0.0301225 Var=0.0197975
meanAndVariance written to "/data/pmxep5-8/PGSFlowTransport/tutorials/RESULTS/stopConcAdapTmstp/scat_5-lowContrast/TS1/processor0/../postProcessing/fieldMetrics/75179.9"
Computing meanAndVariance of position wrt field T
Time=75179.9 MeanConcX=0.0941196 VarConcX=0.00637 MeanConcY=0.485756 VarConcY=0.0791551 MeanConcZ=0.482608 VarConcZ=0.0803024
meanAndVarianceConc written to "/data/pmxep5-8/PGSFlowTransport/tutorials/RESULTS/stopConcAdapTmstp/scat_5-lowContrast/TS1/processor0/../postProcessing/fieldMetrics/75179.9"

Time = 88848.9

Reading fields:
    volScalarFields: T

Executing functionObjects
Computing meanAndVariance on T
Time=88848.9 Mean=0.0351216 Var=0.0227379
meanAndVariance written to "/data/pmxep5-8/PGSFlowTransport/tutorials/RESULTS/stopConcAdapTmstp/scat_5-lowContrast/TS1/processor0/../postProcessing/fieldMetrics/88848.9"
Computing meanAndVariance of position wrt field T
Time=88848.9 MeanConcX=0.106044 VarConcX=0.00799443 MeanConcY=0.485909 VarConcY=0.0793226 MeanConcZ=0.482421 VarConcZ=0.0802606
meanAndVarianceConc written to "/data/pmxep5-8/PGSFlowTransport/tutorials/RESULTS/stopConcAdapTmstp/scat_5-lowContrast/TS1/processor0/../postProcessing/fieldMetrics/88848.9"

Time = 102518

Reading fields:
    volScalarFields: T

Executing functionObjects
Computing meanAndVariance on T
Time=102518 Mean=0.040054 Var=0.0255752
meanAndVariance written to "/data/pmxep5-8/PGSFlowTransport/tutorials/RESULTS/stopConcAdapTmstp/scat_5-lowContrast/TS1/processor0/../postProcessing/fieldMetrics/102518"
Computing meanAndVariance of position wrt field T
Time=102518 MeanConcX=0.11728 VarConcX=0.0096562 MeanConcY=0.486115 VarConcY=0.0794699 MeanConcZ=0.482167 VarConcZ=0.0801903
meanAndVarianceConc written to "/data/pmxep5-8/PGSFlowTransport/tutorials/RESULTS/stopConcAdapTmstp/scat_5-lowContrast/TS1/processor0/../postProcessing/fieldMetrics/102518"

Time = 116547

Reading fields:
    volScalarFields: T

Executing functionObjects
Computing meanAndVariance on T
Time=116547 Mean=0.045059 Var=0.0283888
meanAndVariance written to "/data/pmxep5-8/PGSFlowTransport/tutorials/RESULTS/stopConcAdapTmstp/scat_5-lowContrast/TS1/processor0/../postProcessing/fieldMetrics/116547"
Computing meanAndVariance of position wrt field T
Time=116547 MeanConcX=0.128265 VarConcX=0.0114038 MeanConcY=0.486362 VarConcY=0.0796023 MeanConcZ=0.481852 VarConcZ=0.0800924
meanAndVarianceConc written to "/data/pmxep5-8/PGSFlowTransport/tutorials/RESULTS/stopConcAdapTmstp/scat_5-lowContrast/TS1/processor0/../postProcessing/fieldMetrics/116547"

Time = 130576

Reading fields:
    volScalarFields: T

Executing functionObjects
Computing meanAndVariance on T
Time=130576 Mean=0.0500157 Var=0.03111
meanAndVariance written to "/data/pmxep5-8/PGSFlowTransport/tutorials/RESULTS/stopConcAdapTmstp/scat_5-lowContrast/TS1/processor0/../postProcessing/fieldMetrics/130576"
Computing meanAndVariance of position wrt field T
Time=130576 MeanConcX=0.138819 VarConcX=0.0132008 MeanConcY=0.48663 VarConcY=0.0797186 MeanConcZ=0.481508 VarConcZ=0.0799776
meanAndVarianceConc written to "/data/pmxep5-8/PGSFlowTransport/tutorials/RESULTS/stopConcAdapTmstp/scat_5-lowContrast/TS1/processor0/../postProcessing/fieldMetrics/130576"

Time = 144964

Reading fields:
    volScalarFields: T

Executing functionObjects
Computing meanAndVariance on T
Time=144964 Mean=0.0550573 Var=0.0338123
meanAndVariance written to "/data/pmxep5-8/PGSFlowTransport/tutorials/RESULTS/stopConcAdapTmstp/scat_5-lowContrast/TS1/processor0/../postProcessing/fieldMetrics/144964"
Computing meanAndVariance of position wrt field T
Time=144964 MeanConcX=0.149291 VarConcX=0.0151046 MeanConcY=0.486906 VarConcY=0.0798235 MeanConcZ=0.481153 VarConcZ=0.0798532
meanAndVarianceConc written to "/data/pmxep5-8/PGSFlowTransport/tutorials/RESULTS/stopConcAdapTmstp/scat_5-lowContrast/TS1/processor0/../postProcessing/fieldMetrics/144964"

Time = 159353

Reading fields:
    volScalarFields: T

Executing functionObjects
Computing meanAndVariance on T
Time=159353 Mean=0.060059 Var=0.0364306
meanAndVariance written to "/data/pmxep5-8/PGSFlowTransport/tutorials/RESULTS/stopConcAdapTmstp/scat_5-lowContrast/TS1/processor0/../postProcessing/fieldMetrics/159353"
Computing meanAndVariance of position wrt field T
Time=159353 MeanConcX=0.159453 VarConcX=0.017071 MeanConcY=0.487159 VarConcY=0.0799143 MeanConcZ=0.480821 VarConcZ=0.0797306
meanAndVarianceConc written to "/data/pmxep5-8/PGSFlowTransport/tutorials/RESULTS/stopConcAdapTmstp/scat_5-lowContrast/TS1/processor0/../postProcessing/fieldMetrics/159353"

Time = 173741

Reading fields:
    volScalarFields: T

Executing functionObjects
Computing meanAndVariance on T
Time=173741 Mean=0.0650205 Var=0.0389681
meanAndVariance written to "/data/pmxep5-8/PGSFlowTransport/tutorials/RESULTS/stopConcAdapTmstp/scat_5-lowContrast/TS1/processor0/../postProcessing/fieldMetrics/173741"
Computing meanAndVariance of position wrt field T
Time=173741 MeanConcX=0.169326 VarConcX=0.0190942 MeanConcY=0.48739 VarConcY=0.0799916 MeanConcZ=0.480525 VarConcZ=0.0796143
meanAndVarianceConc written to "/data/pmxep5-8/PGSFlowTransport/tutorials/RESULTS/stopConcAdapTmstp/scat_5-lowContrast/TS1/processor0/../postProcessing/fieldMetrics/173741"

Time = 188489

Reading fields:
    volScalarFields: T

Executing functionObjects
Computing meanAndVariance on T
Time=188489 Mean=0.0700644 Var=0.0414889
meanAndVariance written to "/data/pmxep5-8/PGSFlowTransport/tutorials/RESULTS/stopConcAdapTmstp/scat_5-lowContrast/TS1/processor0/../postProcessing/fieldMetrics/188489"
Computing meanAndVariance of position wrt field T
Time=188489 MeanConcX=0.179167 VarConcX=0.0212219 MeanConcY=0.487617 VarConcY=0.0800585 MeanConcZ=0.480267 VarConcZ=0.079505
meanAndVarianceConc written to "/data/pmxep5-8/PGSFlowTransport/tutorials/RESULTS/stopConcAdapTmstp/scat_5-lowContrast/TS1/processor0/../postProcessing/fieldMetrics/188489"

Time = 203237

Reading fields:
    volScalarFields: T

Executing functionObjects
Computing meanAndVariance on T
Time=203237 Mean=0.0750667 Var=0.0439324
meanAndVariance written to "/data/pmxep5-8/PGSFlowTransport/tutorials/RESULTS/stopConcAdapTmstp/scat_5-lowContrast/TS1/processor0/../postProcessing/fieldMetrics/203237"
Computing meanAndVariance of position wrt field T
Time=203237 MeanConcX=0.188749 VarConcX=0.0234017 MeanConcY=0.487834 VarConcY=0.0801158 MeanConcZ=0.480062 VarConcZ=0.0794071
meanAndVarianceConc written to "/data/pmxep5-8/PGSFlowTransport/tutorials/RESULTS/stopConcAdapTmstp/scat_5-lowContrast/TS1/processor0/../postProcessing/fieldMetrics/203237"

Time = 217986

Reading fields:
    volScalarFields: T

Executing functionObjects
Computing meanAndVariance on T
Time=217986 Mean=0.080029 Var=0.0463021
meanAndVariance written to "/data/pmxep5-8/PGSFlowTransport/tutorials/RESULTS/stopConcAdapTmstp/scat_5-lowContrast/TS1/processor0/../postProcessing/fieldMetrics/217986"
Computing meanAndVariance of position wrt field T
Time=217986 MeanConcX=0.198098 VarConcX=0.0256337 MeanConcY=0.488036 VarConcY=0.0801667 MeanConcZ=0.479911 VarConcZ=0.0793201
meanAndVarianceConc written to "/data/pmxep5-8/PGSFlowTransport/tutorials/RESULTS/stopConcAdapTmstp/scat_5-lowContrast/TS1/processor0/../postProcessing/fieldMetrics/217986"

Time = 233094

Reading fields:
    volScalarFields: T

Executing functionObjects
Computing meanAndVariance on T
Time=233094 Mean=0.0850717 Var=0.0486562
meanAndVariance written to "/data/pmxep5-8/PGSFlowTransport/tutorials/RESULTS/stopConcAdapTmstp/scat_5-lowContrast/TS1/processor0/../postProcessing/fieldMetrics/233094"
Computing meanAndVariance of position wrt field T
Time=233094 MeanConcX=0.207456 VarConcX=0.0279732 MeanConcY=0.488225 VarConcY=0.0802149 MeanConcZ=0.479805 VarConcZ=0.0792417
meanAndVarianceConc written to "/data/pmxep5-8/PGSFlowTransport/tutorials/RESULTS/stopConcAdapTmstp/scat_5-lowContrast/TS1/processor0/../postProcessing/fieldMetrics/233094"

Time = 248201

Reading fields:
    volScalarFields: T

Executing functionObjects
Computing meanAndVariance on T
Time=248201 Mean=0.0900737 Var=0.0509389
meanAndVariance written to "/data/pmxep5-8/PGSFlowTransport/tutorials/RESULTS/stopConcAdapTmstp/scat_5-lowContrast/TS1/processor0/../postProcessing/fieldMetrics/248201"
Computing meanAndVariance of position wrt field T
Time=248201 MeanConcX=0.216607 VarConcX=0.0303646 MeanConcY=0.488396 VarConcY=0.0802601 MeanConcZ=0.479743 VarConcZ=0.0791729
meanAndVarianceConc written to "/data/pmxep5-8/PGSFlowTransport/tutorials/RESULTS/stopConcAdapTmstp/scat_5-lowContrast/TS1/processor0/../postProcessing/fieldMetrics/248201"

Time = 263309

Reading fields:
    volScalarFields: T

Executing functionObjects
Computing meanAndVariance on T
Time=263309 Mean=0.0950356 Var=0.0531527
meanAndVariance written to "/data/pmxep5-8/PGSFlowTransport/tutorials/RESULTS/stopConcAdapTmstp/scat_5-lowContrast/TS1/processor0/../postProcessing/fieldMetrics/263309"
Computing meanAndVariance of position wrt field T
Time=263309 MeanConcX=0.225564 VarConcX=0.0328063 MeanConcY=0.488554 VarConcY=0.0803027 MeanConcZ=0.479717 VarConcZ=0.0791134
meanAndVarianceConc written to "/data/pmxep5-8/PGSFlowTransport/tutorials/RESULTS/stopConcAdapTmstp/scat_5-lowContrast/TS1/processor0/../postProcessing/fieldMetrics/263309"

Time = 278777

Reading fields:
    volScalarFields: T

Executing functionObjects
Computing meanAndVariance on T
Time=278777 Mean=0.100075 Var=0.0553499
meanAndVariance written to "/data/pmxep5-8/PGSFlowTransport/tutorials/RESULTS/stopConcAdapTmstp/scat_5-lowContrast/TS1/processor0/../postProcessing/fieldMetrics/278777"
Computing meanAndVariance of position wrt field T
Time=278777 MeanConcX=0.234546 VarConcX=0.0353561 MeanConcY=0.488705 VarConcY=0.0803435 MeanConcZ=0.479719 VarConcZ=0.079061
meanAndVarianceConc written to "/data/pmxep5-8/PGSFlowTransport/tutorials/RESULTS/stopConcAdapTmstp/scat_5-lowContrast/TS1/processor0/../postProcessing/fieldMetrics/278777"

Time = 294245

Reading fields:
    volScalarFields: T

Executing functionObjects
Computing meanAndVariance on T
Time=294245 Mean=0.105074 Var=0.0574794
meanAndVariance written to "/data/pmxep5-8/PGSFlowTransport/tutorials/RESULTS/stopConcAdapTmstp/scat_5-lowContrast/TS1/processor0/../postProcessing/fieldMetrics/294245"
Computing meanAndVariance of position wrt field T
Time=294245 MeanConcX=0.243348 VarConcX=0.0379541 MeanConcY=0.488853 VarConcY=0.0803812 MeanConcZ=0.479746 VarConcZ=0.0790163
meanAndVarianceConc written to "/data/pmxep5-8/PGSFlowTransport/tutorials/RESULTS/stopConcAdapTmstp/scat_5-lowContrast/TS1/processor0/../postProcessing/fieldMetrics/294245"

Time = 309712

Reading fields:
    volScalarFields: T

Executing functionObjects
Computing meanAndVariance on T
Time=309712 Mean=0.110034 Var=0.0595436
meanAndVariance written to "/data/pmxep5-8/PGSFlowTransport/tutorials/RESULTS/stopConcAdapTmstp/scat_5-lowContrast/TS1/processor0/../postProcessing/fieldMetrics/309712"
Computing meanAndVariance of position wrt field T
Time=309712 MeanConcX=0.251983 VarConcX=0.0405982 MeanConcY=0.488999 VarConcY=0.0804159 MeanConcZ=0.479791 VarConcZ=0.0789781
meanAndVarianceConc written to "/data/pmxep5-8/PGSFlowTransport/tutorials/RESULTS/stopConcAdapTmstp/scat_5-lowContrast/TS1/processor0/../postProcessing/fieldMetrics/309712"

Time = 325540

Reading fields:
    volScalarFields: T

Executing functionObjects
Computing meanAndVariance on T
Time=325540 Mean=0.115071 Var=0.0615896
meanAndVariance written to "/data/pmxep5-8/PGSFlowTransport/tutorials/RESULTS/stopConcAdapTmstp/scat_5-lowContrast/TS1/processor0/../postProcessing/fieldMetrics/325540"
Computing meanAndVariance of position wrt field T
Time=325540 MeanConcX=0.260657 VarConcX=0.0433499 MeanConcY=0.48915 VarConcY=0.0804484 MeanConcZ=0.479853 VarConcZ=0.0789452
meanAndVarianceConc written to "/data/pmxep5-8/PGSFlowTransport/tutorials/RESULTS/stopConcAdapTmstp/scat_5-lowContrast/TS1/processor0/../postProcessing/fieldMetrics/325540"

Time = 341367

Reading fields:
    volScalarFields: T

Executing functionObjects
Computing meanAndVariance on T
Time=341367 Mean=0.12007 Var=0.0635704
meanAndVariance written to "/data/pmxep5-8/PGSFlowTransport/tutorials/RESULTS/stopConcAdapTmstp/scat_5-lowContrast/TS1/processor0/../postProcessing/fieldMetrics/341367"
Computing meanAndVariance of position wrt field T
Time=341367 MeanConcX=0.26918 VarConcX=0.0461474 MeanConcY=0.489303 VarConcY=0.0804784 MeanConcZ=0.47993 VarConcZ=0.0789178
meanAndVarianceConc written to "/data/pmxep5-8/PGSFlowTransport/tutorials/RESULTS/stopConcAdapTmstp/scat_5-lowContrast/TS1/processor0/../postProcessing/fieldMetrics/341367"

Time = 357194

Reading fields:
    volScalarFields: T

Executing functionObjects
Computing meanAndVariance on T
Time=357194 Mean=0.125033 Var=0.0654874
meanAndVariance written to "/data/pmxep5-8/PGSFlowTransport/tutorials/RESULTS/stopConcAdapTmstp/scat_5-lowContrast/TS1/processor0/../postProcessing/fieldMetrics/357194"
Computing meanAndVariance of position wrt field T
Time=357194 MeanConcX=0.277564 VarConcX=0.0489906 MeanConcY=0.489459 VarConcY=0.0805064 MeanConcZ=0.480019 VarConcZ=0.0788954
meanAndVarianceConc written to "/data/pmxep5-8/PGSFlowTransport/tutorials/RESULTS/stopConcAdapTmstp/scat_5-lowContrast/TS1/processor0/../postProcessing/fieldMetrics/357194"

Time = 373381

Reading fields:
    volScalarFields: T

Executing functionObjects
Computing meanAndVariance on T
Time=373381 Mean=0.130073 Var=0.0673835
meanAndVariance written to "/data/pmxep5-8/PGSFlowTransport/tutorials/RESULTS/stopConcAdapTmstp/scat_5-lowContrast/TS1/processor0/../postProcessing/fieldMetrics/373381"
Computing meanAndVariance of position wrt field T
Time=373381 MeanConcX=0.286007 VarConcX=0.0519462 MeanConcY=0.489621 VarConcY=0.0805332 MeanConcZ=0.48012 VarConcZ=0.0788768
meanAndVarianceConc written to "/data/pmxep5-8/PGSFlowTransport/tutorials/RESULTS/stopConcAdapTmstp/scat_5-lowContrast/TS1/processor0/../postProcessing/fieldMetrics/373381"

Time = 389568

Reading fields:
    volScalarFields: T

Executing functionObjects
Computing meanAndVariance on T
Time=389568 Mean=0.135079 Var=0.0692164
meanAndVariance written to "/data/pmxep5-8/PGSFlowTransport/tutorials/RESULTS/stopConcAdapTmstp/scat_5-lowContrast/TS1/processor0/../postProcessing/fieldMetrics/389568"
Computing meanAndVariance of position wrt field T
Time=389568 MeanConcX=0.294328 VarConcX=0.0549507 MeanConcY=0.489786 VarConcY=0.0805582 MeanConcZ=0.480231 VarConcZ=0.0788621
meanAndVarianceConc written to "/data/pmxep5-8/PGSFlowTransport/tutorials/RESULTS/stopConcAdapTmstp/scat_5-lowContrast/TS1/processor0/../postProcessing/fieldMetrics/389568"

Time = 405755

Reading fields:
    volScalarFields: T

Executing functionObjects
Computing meanAndVariance on T
Time=405755 Mean=0.140054 Var=0.0709875
meanAndVariance written to "/data/pmxep5-8/PGSFlowTransport/tutorials/RESULTS/stopConcAdapTmstp/scat_5-lowContrast/TS1/processor0/../postProcessing/fieldMetrics/405755"
Computing meanAndVariance of position wrt field T
Time=405755 MeanConcX=0.302537 VarConcX=0.0580046 MeanConcY=0.489954 VarConcY=0.0805817 MeanConcZ=0.48035 VarConcZ=0.0788506
meanAndVarianceConc written to "/data/pmxep5-8/PGSFlowTransport/tutorials/RESULTS/stopConcAdapTmstp/scat_5-lowContrast/TS1/processor0/../postProcessing/fieldMetrics/405755"

Time = 422302

Reading fields:
    volScalarFields: T

Executing functionObjects
Computing meanAndVariance on T
Time=422302 Mean=0.145108 Var=0.0727361
meanAndVariance written to "/data/pmxep5-8/PGSFlowTransport/tutorials/RESULTS/stopConcAdapTmstp/scat_5-lowContrast/TS1/processor0/../postProcessing/fieldMetrics/422302"
Computing meanAndVariance of position wrt field T
Time=422302 MeanConcX=0.310821 VarConcX=0.0611778 MeanConcY=0.49013 VarConcY=0.0806043 MeanConcZ=0.480479 VarConcZ=0.078842
meanAndVarianceConc written to "/data/pmxep5-8/PGSFlowTransport/tutorials/RESULTS/stopConcAdapTmstp/scat_5-lowContrast/TS1/processor0/../postProcessing/fieldMetrics/422302"

Time = 438489

Reading fields:
    volScalarFields: T

Executing functionObjects
Computing meanAndVariance on T
Time=438489 Mean=0.150025 Var=0.0743874
meanAndVariance written to "/data/pmxep5-8/PGSFlowTransport/tutorials/RESULTS/stopConcAdapTmstp/scat_5-lowContrast/TS1/processor0/../postProcessing/fieldMetrics/438489"
Computing meanAndVariance of position wrt field T
Time=438489 MeanConcX=0.318828 VarConcX=0.0643325 MeanConcY=0.490306 VarConcY=0.0806252 MeanConcZ=0.48061 VarConcZ=0.078836
meanAndVarianceConc written to "/data/pmxep5-8/PGSFlowTransport/tutorials/RESULTS/stopConcAdapTmstp/scat_5-lowContrast/TS1/processor0/../postProcessing/fieldMetrics/438489"

Time = 455036

Reading fields:
    volScalarFields: T

Executing functionObjects
Computing meanAndVariance on T
Time=455036 Mean=0.155023 Var=0.0760163
meanAndVariance written to "/data/pmxep5-8/PGSFlowTransport/tutorials/RESULTS/stopConcAdapTmstp/scat_5-lowContrast/TS1/processor0/../postProcessing/fieldMetrics/455036"
Computing meanAndVariance of position wrt field T
Time=455036 MeanConcX=0.326922 VarConcX=0.0676089 MeanConcY=0.49049 VarConcY=0.0806456 MeanConcZ=0.480749 VarConcZ=0.0788318
meanAndVarianceConc written to "/data/pmxep5-8/PGSFlowTransport/tutorials/RESULTS/stopConcAdapTmstp/scat_5-lowContrast/TS1/processor0/../postProcessing/fieldMetrics/455036"

Time = 471942

Reading fields:
    volScalarFields: T

Executing functionObjects
Computing meanAndVariance on T
Time=471942 Mean=0.160104 Var=0.0776206
meanAndVariance written to "/data/pmxep5-8/PGSFlowTransport/tutorials/RESULTS/stopConcAdapTmstp/scat_5-lowContrast/TS1/processor0/../postProcessing/fieldMetrics/471942"
Computing meanAndVariance of position wrt field T
Time=471942 MeanConcX=0.335103 VarConcX=0.0710098 MeanConcY=0.490682 VarConcY=0.0806652 MeanConcZ=0.480896 VarConcZ=0.0788293
meanAndVarianceConc written to "/data/pmxep5-8/PGSFlowTransport/tutorials/RESULTS/stopConcAdapTmstp/scat_5-lowContrast/TS1/processor0/../postProcessing/fieldMetrics/471942"

Time = 488489

Reading fields:
    volScalarFields: T

Executing functionObjects
Computing meanAndVariance on T
Time=488489 Mean=0.165053 Var=0.0791334
meanAndVariance written to "/data/pmxep5-8/PGSFlowTransport/tutorials/RESULTS/stopConcAdapTmstp/scat_5-lowContrast/TS1/processor0/../postProcessing/fieldMetrics/488489"
Computing meanAndVariance of position wrt field T
Time=488489 MeanConcX=0.343028 VarConcX=0.07439 MeanConcY=0.490875 VarConcY=0.0806833 MeanConcZ=0.481042 VarConcZ=0.0788281
meanAndVarianceConc written to "/data/pmxep5-8/PGSFlowTransport/tutorials/RESULTS/stopConcAdapTmstp/scat_5-lowContrast/TS1/processor0/../postProcessing/fieldMetrics/488489"

Time = 505396

Reading fields:
    volScalarFields: T

Executing functionObjects
Computing meanAndVariance on T
Time=505396 Mean=0.170085 Var=0.0806216
meanAndVariance written to "/data/pmxep5-8/PGSFlowTransport/tutorials/RESULTS/stopConcAdapTmstp/scat_5-lowContrast/TS1/processor0/../postProcessing/fieldMetrics/505396"
Computing meanAndVariance of position wrt field T
Time=505396 MeanConcX=0.351047 VarConcX=0.0778949 MeanConcY=0.491075 VarConcY=0.0807009 MeanConcZ=0.481195 VarConcZ=0.0788279
meanAndVarianceConc written to "/data/pmxep5-8/PGSFlowTransport/tutorials/RESULTS/stopConcAdapTmstp/scat_5-lowContrast/TS1/processor0/../postProcessing/fieldMetrics/505396"

Time = 522302

Reading fields:
    volScalarFields: T

Executing functionObjects
Computing meanAndVariance on T
Time=522302 Mean=0.175095 Var=0.0820531
meanAndVariance written to "/data/pmxep5-8/PGSFlowTransport/tutorials/RESULTS/stopConcAdapTmstp/scat_5-lowContrast/TS1/processor0/../postProcessing/fieldMetrics/522302"
Computing meanAndVariance of position wrt field T
Time=522302 MeanConcX=0.358989 VarConcX=0.0814497 MeanConcY=0.491278 VarConcY=0.0807177 MeanConcZ=0.48135 VarConcZ=0.0788283
meanAndVarianceConc written to "/data/pmxep5-8/PGSFlowTransport/tutorials/RESULTS/stopConcAdapTmstp/scat_5-lowContrast/TS1/processor0/../postProcessing/fieldMetrics/522302"

Time = 539209

Reading fields:
    volScalarFields: T

Executing functionObjects
Computing meanAndVariance on T
Time=539209 Mean=0.180083 Var=0.0834293
meanAndVariance written to "/data/pmxep5-8/PGSFlowTransport/tutorials/RESULTS/stopConcAdapTmstp/scat_5-lowContrast/TS1/processor0/../postProcessing/fieldMetrics/539209"
Computing meanAndVariance of position wrt field T
Time=539209 MeanConcX=0.366857 VarConcX=0.0850517 MeanConcY=0.491484 VarConcY=0.0807339 MeanConcZ=0.481508 VarConcZ=0.0788292
meanAndVarianceConc written to "/data/pmxep5-8/PGSFlowTransport/tutorials/RESULTS/stopConcAdapTmstp/scat_5-lowContrast/TS1/processor0/../postProcessing/fieldMetrics/539209"

Time = 556115

Reading fields:
    volScalarFields: T

Executing functionObjects
Computing meanAndVariance on T
Time=556115 Mean=0.185051 Var=0.0847513
meanAndVariance written to "/data/pmxep5-8/PGSFlowTransport/tutorials/RESULTS/stopConcAdapTmstp/scat_5-lowContrast/TS1/processor0/../postProcessing/fieldMetrics/556115"
Computing meanAndVariance of position wrt field T
Time=556115 MeanConcX=0.374654 VarConcX=0.0886967 MeanConcY=0.491691 VarConcY=0.0807495 MeanConcZ=0.481667 VarConcZ=0.0788303
meanAndVarianceConc written to "/data/pmxep5-8/PGSFlowTransport/tutorials/RESULTS/stopConcAdapTmstp/scat_5-lowContrast/TS1/processor0/../postProcessing/fieldMetrics/556115"

Time = 573381

Reading fields:
    volScalarFields: T

Executing functionObjects
Computing meanAndVariance on T
Time=573381 Mean=0.190103 Var=0.0860469
meanAndVariance written to "/data/pmxep5-8/PGSFlowTransport/tutorials/RESULTS/stopConcAdapTmstp/scat_5-lowContrast/TS1/processor0/../postProcessing/fieldMetrics/573381"
Computing meanAndVariance of position wrt field T
Time=573381 MeanConcX=0.382542 VarConcX=0.0924593 MeanConcY=0.491904 VarConcY=0.0807651 MeanConcZ=0.481831 VarConcZ=0.0788316
meanAndVarianceConc written to "/data/pmxep5-8/PGSFlowTransport/tutorials/RESULTS/stopConcAdapTmstp/scat_5-lowContrast/TS1/processor0/../postProcessing/fieldMetrics/573381"

Time = 590288

Reading fields:
    volScalarFields: T

Executing functionObjects
Computing meanAndVariance on T
Time=590288 Mean=0.195031 Var=0.0872628
meanAndVariance written to "/data/pmxep5-8/PGSFlowTransport/tutorials/RESULTS/stopConcAdapTmstp/scat_5-lowContrast/TS1/processor0/../postProcessing/fieldMetrics/590288"
Computing meanAndVariance of position wrt field T
Time=590288 MeanConcX=0.390194 VarConcX=0.0961773 MeanConcY=0.492114 VarConcY=0.0807801 MeanConcZ=0.481994 VarConcZ=0.078833
meanAndVarianceConc written to "/data/pmxep5-8/PGSFlowTransport/tutorials/RESULTS/stopConcAdapTmstp/scat_5-lowContrast/TS1/processor0/../postProcessing/fieldMetrics/590288"

Time = 607554

Reading fields:
    volScalarFields: T

Executing functionObjects
Computing meanAndVariance on T
Time=607554 Mean=0.200043 Var=0.0884521
meanAndVariance written to "/data/pmxep5-8/PGSFlowTransport/tutorials/RESULTS/stopConcAdapTmstp/scat_5-lowContrast/TS1/processor0/../postProcessing/fieldMetrics/607554"
Computing meanAndVariance of position wrt field T
Time=607554 MeanConcX=0.397935 VarConcX=0.100003 MeanConcY=0.492329 VarConcY=0.0807952 MeanConcZ=0.48216 VarConcZ=0.0788347
meanAndVarianceConc written to "/data/pmxep5-8/PGSFlowTransport/tutorials/RESULTS/stopConcAdapTmstp/scat_5-lowContrast/TS1/processor0/../postProcessing/fieldMetrics/607554"

Time = 624820

Reading fields:
    volScalarFields: T

Executing functionObjects
Computing meanAndVariance on T
Time=624820 Mean=0.205036 Var=0.0895894
meanAndVariance written to "/data/pmxep5-8/PGSFlowTransport/tutorials/RESULTS/stopConcAdapTmstp/scat_5-lowContrast/TS1/processor0/../postProcessing/fieldMetrics/624820"
Computing meanAndVariance of position wrt field T
Time=624820 MeanConcX=0.4056 VarConcX=0.103853 MeanConcY=0.492543 VarConcY=0.0808102 MeanConcZ=0.482327 VarConcZ=0.0788365
meanAndVarianceConc written to "/data/pmxep5-8/PGSFlowTransport/tutorials/RESULTS/stopConcAdapTmstp/scat_5-lowContrast/TS1/processor0/../postProcessing/fieldMetrics/624820"

Time = 642086

Reading fields:
    volScalarFields: T

Executing functionObjects
Computing meanAndVariance on T
Time=642086 Mean=0.210009 Var=0.0906761
meanAndVariance written to "/data/pmxep5-8/PGSFlowTransport/tutorials/RESULTS/stopConcAdapTmstp/scat_5-lowContrast/TS1/processor0/../postProcessing/fieldMetrics/642086"
Computing meanAndVariance of position wrt field T
Time=642086 MeanConcX=0.413188 VarConcX=0.107719 MeanConcY=0.492756 VarConcY=0.0808251 MeanConcZ=0.482494 VarConcZ=0.0788383
meanAndVarianceConc written to "/data/pmxep5-8/PGSFlowTransport/tutorials/RESULTS/stopConcAdapTmstp/scat_5-lowContrast/TS1/processor0/../postProcessing/fieldMetrics/642086"

Time = 659712

Reading fields:
    volScalarFields: T

Executing functionObjects
Computing meanAndVariance on T
Time=659712 Mean=0.215066 Var=0.0917344
meanAndVariance written to "/data/pmxep5-8/PGSFlowTransport/tutorials/RESULTS/stopConcAdapTmstp/scat_5-lowContrast/TS1/processor0/../postProcessing/fieldMetrics/659712"
Computing meanAndVariance of position wrt field T
Time=659712 MeanConcX=0.420853 VarConcX=0.111677 MeanConcY=0.492973 VarConcY=0.0808403 MeanConcZ=0.482664 VarConcZ=0.0788404
meanAndVarianceConc written to "/data/pmxep5-8/PGSFlowTransport/tutorials/RESULTS/stopConcAdapTmstp/scat_5-lowContrast/TS1/processor0/../postProcessing/fieldMetrics/659712"

Time = 677338

Reading fields:
    volScalarFields: T

Executing functionObjects
Computing meanAndVariance on T
Time=677338 Mean=0.220102 Var=0.0927422
meanAndVariance written to "/data/pmxep5-8/PGSFlowTransport/tutorials/RESULTS/stopConcAdapTmstp/scat_5-lowContrast/TS1/processor0/../postProcessing/fieldMetrics/677338"
Computing meanAndVariance of position wrt field T
Time=677338 MeanConcX=0.428436 VarConcX=0.11564 MeanConcY=0.493189 VarConcY=0.0808556 MeanConcZ=0.482834 VarConcZ=0.0788427
meanAndVarianceConc written to "/data/pmxep5-8/PGSFlowTransport/tutorials/RESULTS/stopConcAdapTmstp/scat_5-lowContrast/TS1/processor0/../postProcessing/fieldMetrics/677338"

Time = 694604

Reading fields:
    volScalarFields: T

Executing functionObjects
Computing meanAndVariance on T
Time=694604 Mean=0.225017 Var=0.0936815
meanAndVariance written to "/data/pmxep5-8/PGSFlowTransport/tutorials/RESULTS/stopConcAdapTmstp/scat_5-lowContrast/TS1/processor0/../postProcessing/fieldMetrics/694604"
Computing meanAndVariance of position wrt field T
Time=694604 MeanConcX=0.435781 VarConcX=0.119521 MeanConcY=0.493398 VarConcY=0.0808706 MeanConcZ=0.483 VarConcZ=0.0788451
meanAndVarianceConc written to "/data/pmxep5-8/PGSFlowTransport/tutorials/RESULTS/stopConcAdapTmstp/scat_5-lowContrast/TS1/processor0/../postProcessing/fieldMetrics/694604"

Time = 712230

Reading fields:
    volScalarFields: T

Executing functionObjects
Computing meanAndVariance on T
Time=712230 Mean=0.230013 Var=0.0945925
meanAndVariance written to "/data/pmxep5-8/PGSFlowTransport/tutorials/RESULTS/stopConcAdapTmstp/scat_5-lowContrast/TS1/processor0/../postProcessing/fieldMetrics/712230"
Computing meanAndVariance of position wrt field T
Time=712230 MeanConcX=0.443195 VarConcX=0.123475 MeanConcY=0.49361 VarConcY=0.0808861 MeanConcZ=0.483168 VarConcZ=0.078848
meanAndVarianceConc written to "/data/pmxep5-8/PGSFlowTransport/tutorials/RESULTS/stopConcAdapTmstp/scat_5-lowContrast/TS1/processor0/../postProcessing/fieldMetrics/712230"

Time = 730216

Reading fields:
    volScalarFields: T

Executing functionObjects
Computing meanAndVariance on T
Time=730216 Mean=0.23509 Var=0.0954734
meanAndVariance written to "/data/pmxep5-8/PGSFlowTransport/tutorials/RESULTS/stopConcAdapTmstp/scat_5-lowContrast/TS1/processor0/../postProcessing/fieldMetrics/730216"
Computing meanAndVariance of position wrt field T
Time=730216 MeanConcX=0.45067 VarConcX=0.127496 MeanConcY=0.493823 VarConcY=0.080902 MeanConcZ=0.483339 VarConcZ=0.0788514
meanAndVarianceConc written to "/data/pmxep5-8/PGSFlowTransport/tutorials/RESULTS/stopConcAdapTmstp/scat_5-lowContrast/TS1/processor0/../postProcessing/fieldMetrics/730216"

Time = 747842

Reading fields:
    volScalarFields: T

Executing functionObjects
Computing meanAndVariance on T
Time=747842 Mean=0.240045 Var=0.0962904
meanAndVariance written to "/data/pmxep5-8/PGSFlowTransport/tutorials/RESULTS/stopConcAdapTmstp/scat_5-lowContrast/TS1/processor0/../postProcessing/fieldMetrics/747842"
Computing meanAndVariance of position wrt field T
Time=747842 MeanConcX=0.457905 VarConcX=0.131417 MeanConcY=0.49403 VarConcY=0.0809177 MeanConcZ=0.483504 VarConcZ=0.0788553
meanAndVarianceConc written to "/data/pmxep5-8/PGSFlowTransport/tutorials/RESULTS/stopConcAdapTmstp/scat_5-lowContrast/TS1/processor0/../postProcessing/fieldMetrics/747842"

Time = 765827

Reading fields:
    volScalarFields: T

Executing functionObjects
Computing meanAndVariance on T
Time=765827 Mean=0.245079 Var=0.097078
meanAndVariance written to "/data/pmxep5-8/PGSFlowTransport/tutorials/RESULTS/stopConcAdapTmstp/scat_5-lowContrast/TS1/processor0/../postProcessing/fieldMetrics/765827"
Computing meanAndVariance of position wrt field T
Time=765827 MeanConcX=0.465194 VarConcX=0.135393 MeanConcY=0.494239 VarConcY=0.0809339 MeanConcZ=0.483671 VarConcZ=0.0788597
meanAndVarianceConc written to "/data/pmxep5-8/PGSFlowTransport/tutorials/RESULTS/stopConcAdapTmstp/scat_5-lowContrast/TS1/processor0/../postProcessing/fieldMetrics/765827"

Time = 783813

Reading fields:
    volScalarFields: T

Executing functionObjects
Computing meanAndVariance on T
Time=783813 Mean=0.25009 Var=0.0978201
meanAndVariance written to "/data/pmxep5-8/PGSFlowTransport/tutorials/RESULTS/stopConcAdapTmstp/scat_5-lowContrast/TS1/processor0/../postProcessing/fieldMetrics/783813"
Computing meanAndVariance of position wrt field T
Time=783813 MeanConcX=0.472386 VarConcX=0.139338 MeanConcY=0.494444 VarConcY=0.0809502 MeanConcZ=0.483836 VarConcZ=0.0788648
meanAndVarianceConc written to "/data/pmxep5-8/PGSFlowTransport/tutorials/RESULTS/stopConcAdapTmstp/scat_5-lowContrast/TS1/processor0/../postProcessing/fieldMetrics/783813"

Time = 801799

Reading fields:
    volScalarFields: T

Executing functionObjects
Computing meanAndVariance on T
Time=801799 Mean=0.255079 Var=0.098518
meanAndVariance written to "/data/pmxep5-8/PGSFlowTransport/tutorials/RESULTS/stopConcAdapTmstp/scat_5-lowContrast/TS1/processor0/../postProcessing/fieldMetrics/801799"
Computing meanAndVariance of position wrt field T
Time=801799 MeanConcX=0.479481 VarConcX=0.143248 MeanConcY=0.494646 VarConcY=0.0809667 MeanConcZ=0.483999 VarConcZ=0.0788706
meanAndVarianceConc written to "/data/pmxep5-8/PGSFlowTransport/tutorials/RESULTS/stopConcAdapTmstp/scat_5-lowContrast/TS1/processor0/../postProcessing/fieldMetrics/801799"

Time = 819784

Reading fields:
    volScalarFields: T

Executing functionObjects
Computing meanAndVariance on T
Time=819784 Mean=0.260045 Var=0.0991729
meanAndVariance written to "/data/pmxep5-8/PGSFlowTransport/tutorials/RESULTS/stopConcAdapTmstp/scat_5-lowContrast/TS1/processor0/../postProcessing/fieldMetrics/819784"
Computing meanAndVariance of position wrt field T
Time=819784 MeanConcX=0.486476 VarConcX=0.147117 MeanConcY=0.494844 VarConcY=0.0809832 MeanConcZ=0.484161 VarConcZ=0.078877
meanAndVarianceConc written to "/data/pmxep5-8/PGSFlowTransport/tutorials/RESULTS/stopConcAdapTmstp/scat_5-lowContrast/TS1/processor0/../postProcessing/fieldMetrics/819784"

Time = 838129

Reading fields:
    volScalarFields: T

Executing functionObjects
Computing meanAndVariance on T
Time=838129 Mean=0.265086 Var=0.0997981
meanAndVariance written to "/data/pmxep5-8/PGSFlowTransport/tutorials/RESULTS/stopConcAdapTmstp/scat_5-lowContrast/TS1/processor0/../postProcessing/fieldMetrics/838129"
Computing meanAndVariance of position wrt field T
Time=838129 MeanConcX=0.493507 VarConcX=0.151017 MeanConcY=0.495043 VarConcY=0.081 MeanConcZ=0.484323 VarConcZ=0.0788843
meanAndVarianceConc written to "/data/pmxep5-8/PGSFlowTransport/tutorials/RESULTS/stopConcAdapTmstp/scat_5-lowContrast/TS1/processor0/../postProcessing/fieldMetrics/838129"

Time = 856115

Reading fields:
    volScalarFields: T

Executing functionObjects
Computing meanAndVariance on T
Time=856115 Mean=0.270003 Var=0.10037
meanAndVariance written to "/data/pmxep5-8/PGSFlowTransport/tutorials/RESULTS/stopConcAdapTmstp/scat_5-lowContrast/TS1/processor0/../postProcessing/fieldMetrics/856115"
Computing meanAndVariance of position wrt field T
Time=856115 MeanConcX=0.500298 VarConcX=0.154792 MeanConcY=0.495235 VarConcY=0.0810166 MeanConcZ=0.48448 VarConcZ=0.0788922
meanAndVarianceConc written to "/data/pmxep5-8/PGSFlowTransport/tutorials/RESULTS/stopConcAdapTmstp/scat_5-lowContrast/TS1/processor0/../postProcessing/fieldMetrics/856115"

Time = 874820

Reading fields:
    volScalarFields: T

Executing functionObjects
Computing meanAndVariance on T
Time=874820 Mean=0.27509 Var=0.100923
meanAndVariance written to "/data/pmxep5-8/PGSFlowTransport/tutorials/RESULTS/stopConcAdapTmstp/scat_5-lowContrast/TS1/processor0/../postProcessing/fieldMetrics/874820"
Computing meanAndVariance of position wrt field T
Time=874820 MeanConcX=0.507251 VarConcX=0.158662 MeanConcY=0.495431 VarConcY=0.0810338 MeanConcZ=0.48464 VarConcZ=0.0789013
meanAndVarianceConc written to "/data/pmxep5-8/PGSFlowTransport/tutorials/RESULTS/stopConcAdapTmstp/scat_5-lowContrast/TS1/processor0/../postProcessing/fieldMetrics/874820"

Time = 893165

Reading fields:
    volScalarFields: T

Executing functionObjects
Computing meanAndVariance on T
Time=893165 Mean=0.280054 Var=0.101426
meanAndVariance written to "/data/pmxep5-8/PGSFlowTransport/tutorials/RESULTS/stopConcAdapTmstp/scat_5-lowContrast/TS1/processor0/../postProcessing/fieldMetrics/893165"
Computing meanAndVariance of position wrt field T
Time=893165 MeanConcX=0.513961 VarConcX=0.162399 MeanConcY=0.495619 VarConcY=0.0810506 MeanConcZ=0.484795 VarConcZ=0.0789108
meanAndVarianceConc written to "/data/pmxep5-8/PGSFlowTransport/tutorials/RESULTS/stopConcAdapTmstp/scat_5-lowContrast/TS1/processor0/../postProcessing/fieldMetrics/893165"

Time = 911871

Reading fields:
    volScalarFields: T

Executing functionObjects
Computing meanAndVariance on T
Time=911871 Mean=0.285086 Var=0.101899
meanAndVariance written to "/data/pmxep5-8/PGSFlowTransport/tutorials/RESULTS/stopConcAdapTmstp/scat_5-lowContrast/TS1/processor0/../postProcessing/fieldMetrics/911871"
Computing meanAndVariance of position wrt field T
Time=911871 MeanConcX=0.520691 VarConcX=0.166146 MeanConcY=0.495806 VarConcY=0.0810675 MeanConcZ=0.484949 VarConcZ=0.0789214
meanAndVarianceConc written to "/data/pmxep5-8/PGSFlowTransport/tutorials/RESULTS/stopConcAdapTmstp/scat_5-lowContrast/TS1/processor0/../postProcessing/fieldMetrics/911871"

Time = 930576

Reading fields:
    volScalarFields: T

Executing functionObjects
Computing meanAndVariance on T
Time=930576 Mean=0.290091 Var=0.102334
meanAndVariance written to "/data/pmxep5-8/PGSFlowTransport/tutorials/RESULTS/stopConcAdapTmstp/scat_5-lowContrast/TS1/processor0/../postProcessing/fieldMetrics/930576"
Computing meanAndVariance of position wrt field T
Time=930576 MeanConcX=0.527307 VarConcX=0.169827 MeanConcY=0.495989 VarConcY=0.0810842 MeanConcZ=0.485101 VarConcZ=0.0789327
meanAndVarianceConc written to "/data/pmxep5-8/PGSFlowTransport/tutorials/RESULTS/stopConcAdapTmstp/scat_5-lowContrast/TS1/processor0/../postProcessing/fieldMetrics/930576"

Time = 949281

Reading fields:
    volScalarFields: T

Executing functionObjects
Computing meanAndVariance on T
Time=949281 Mean=0.295066 Var=0.102732
meanAndVariance written to "/data/pmxep5-8/PGSFlowTransport/tutorials/RESULTS/stopConcAdapTmstp/scat_5-lowContrast/TS1/processor0/../postProcessing/fieldMetrics/949281"
Computing meanAndVariance of position wrt field T
Time=949281 MeanConcX=0.53381 VarConcX=0.17344 MeanConcY=0.496168 VarConcY=0.0811008 MeanConcZ=0.48525 VarConcZ=0.0789448
meanAndVarianceConc written to "/data/pmxep5-8/PGSFlowTransport/tutorials/RESULTS/stopConcAdapTmstp/scat_5-lowContrast/TS1/processor0/../postProcessing/fieldMetrics/949281"

Time = 967986

Reading fields:
    volScalarFields: T

Executing functionObjects
Computing meanAndVariance on T
Time=967986 Mean=0.300011 Var=0.103094
meanAndVariance written to "/data/pmxep5-8/PGSFlowTransport/tutorials/RESULTS/stopConcAdapTmstp/scat_5-lowContrast/TS1/processor0/../postProcessing/fieldMetrics/967986"
Computing meanAndVariance of position wrt field T
Time=967986 MeanConcX=0.540199 VarConcX=0.176982 MeanConcY=0.496343 VarConcY=0.0811171 MeanConcZ=0.485396 VarConcZ=0.0789576
meanAndVarianceConc written to "/data/pmxep5-8/PGSFlowTransport/tutorials/RESULTS/stopConcAdapTmstp/scat_5-lowContrast/TS1/processor0/../postProcessing/fieldMetrics/967986"

Time = 987050

Reading fields:
    volScalarFields: T

Executing functionObjects
Computing meanAndVariance on T
Time=987050 Mean=0.30502 Var=0.103428
meanAndVariance written to "/data/pmxep5-8/PGSFlowTransport/tutorials/RESULTS/stopConcAdapTmstp/scat_5-lowContrast/TS1/processor0/../postProcessing/fieldMetrics/987050"
Computing meanAndVariance of position wrt field T
Time=987050 MeanConcX=0.546593 VarConcX=0.180518 MeanConcY=0.496516 VarConcY=0.0811336 MeanConcZ=0.485542 VarConcZ=0.0789714
meanAndVarianceConc written to "/data/pmxep5-8/PGSFlowTransport/tutorials/RESULTS/stopConcAdapTmstp/scat_5-lowContrast/TS1/processor0/../postProcessing/fieldMetrics/987050"

Time = 1.00647e+06

Reading fields:
    volScalarFields: T

Executing functionObjects
Computing meanAndVariance on T
Time=1.00647e+06 Mean=0.310091 Var=0.103732
meanAndVariance written to "/data/pmxep5-8/PGSFlowTransport/tutorials/RESULTS/stopConcAdapTmstp/scat_5-lowContrast/TS1/processor0/../postProcessing/fieldMetrics/1.00647e+06"
Computing meanAndVariance of position wrt field T
Time=1.00647e+06 MeanConcX=0.552986 VarConcX=0.184042 MeanConcY=0.496688 VarConcY=0.0811501 MeanConcZ=0.485688 VarConcZ=0.0789861
meanAndVarianceConc written to "/data/pmxep5-8/PGSFlowTransport/tutorials/RESULTS/stopConcAdapTmstp/scat_5-lowContrast/TS1/processor0/../postProcessing/fieldMetrics/1.00647e+06"

Time = 1.02554e+06

Reading fields:
    volScalarFields: T

Executing functionObjects
Computing meanAndVariance on T
Time=1.02554e+06 Mean=0.315035 Var=0.103997
meanAndVariance written to "/data/pmxep5-8/PGSFlowTransport/tutorials/RESULTS/stopConcAdapTmstp/scat_5-lowContrast/TS1/processor0/../postProcessing/fieldMetrics/1.02554e+06"
Computing meanAndVariance of position wrt field T
Time=1.02554e+06 MeanConcX=0.559143 VarConcX=0.187423 MeanConcY=0.496852 VarConcY=0.081166 MeanConcZ=0.485828 VarConcZ=0.0790013
meanAndVarianceConc written to "/data/pmxep5-8/PGSFlowTransport/tutorials/RESULTS/stopConcAdapTmstp/scat_5-lowContrast/TS1/processor0/../postProcessing/fieldMetrics/1.02554e+06"

Time = 1.04496e+06

Reading fields:
    volScalarFields: T

Executing functionObjects
Computing meanAndVariance on T
Time=1.04496e+06 Mean=0.320039 Var=0.104234
meanAndVariance written to "/data/pmxep5-8/PGSFlowTransport/tutorials/RESULTS/stopConcAdapTmstp/scat_5-lowContrast/TS1/processor0/../postProcessing/fieldMetrics/1.04496e+06"
Computing meanAndVariance of position wrt field T
Time=1.04496e+06 MeanConcX=0.565295 VarConcX=0.190787 MeanConcY=0.497015 VarConcY=0.0811819 MeanConcZ=0.485968 VarConcZ=0.0790174
meanAndVarianceConc written to "/data/pmxep5-8/PGSFlowTransport/tutorials/RESULTS/stopConcAdapTmstp/scat_5-lowContrast/TS1/processor0/../postProcessing/fieldMetrics/1.04496e+06"

Time = 1.06439e+06

Reading fields:
    volScalarFields: T

Executing functionObjects
Computing meanAndVariance on T
Time=1.06439e+06 Mean=0.325008 Var=0.10444
meanAndVariance written to "/data/pmxep5-8/PGSFlowTransport/tutorials/RESULTS/stopConcAdapTmstp/scat_5-lowContrast/TS1/processor0/../postProcessing/fieldMetrics/1.06439e+06"
Computing meanAndVariance of position wrt field T
Time=1.06439e+06 MeanConcX=0.571327 VarConcX=0.194069 MeanConcY=0.497173 VarConcY=0.0811977 MeanConcZ=0.486106 VarConcZ=0.0790341
meanAndVarianceConc written to "/data/pmxep5-8/PGSFlowTransport/tutorials/RESULTS/stopConcAdapTmstp/scat_5-lowContrast/TS1/processor0/../postProcessing/fieldMetrics/1.06439e+06"

Time = 1.08417e+06

Reading fields:
    volScalarFields: T

Executing functionObjects
Computing meanAndVariance on T
Time=1.08417e+06 Mean=0.330033 Var=0.104618
meanAndVariance written to "/data/pmxep5-8/PGSFlowTransport/tutorials/RESULTS/stopConcAdapTmstp/scat_5-lowContrast/TS1/processor0/../postProcessing/fieldMetrics/1.08417e+06"
Computing meanAndVariance of position wrt field T
Time=1.08417e+06 MeanConcX=0.577348 VarConcX=0.197329 MeanConcY=0.497329 VarConcY=0.0812134 MeanConcZ=0.486243 VarConcZ=0.0790517
meanAndVarianceConc written to "/data/pmxep5-8/PGSFlowTransport/tutorials/RESULTS/stopConcAdapTmstp/scat_5-lowContrast/TS1/processor0/../postProcessing/fieldMetrics/1.08417e+06"

Time = 1.10396e+06

Reading fields:
    volScalarFields: T

Executing functionObjects
Computing meanAndVariance on T
Time=1.10396e+06 Mean=0.335022 Var=0.104765
meanAndVariance written to "/data/pmxep5-8/PGSFlowTransport/tutorials/RESULTS/stopConcAdapTmstp/scat_5-lowContrast/TS1/processor0/../postProcessing/fieldMetrics/1.10396e+06"
Computing meanAndVariance of position wrt field T
Time=1.10396e+06 MeanConcX=0.583247 VarConcX=0.200505 MeanConcY=0.49748 VarConcY=0.0812289 MeanConcZ=0.486378 VarConcZ=0.0790699
meanAndVarianceConc written to "/data/pmxep5-8/PGSFlowTransport/tutorials/RESULTS/stopConcAdapTmstp/scat_5-lowContrast/TS1/processor0/../postProcessing/fieldMetrics/1.10396e+06"

Time = 1.1241e+06

Reading fields:
    volScalarFields: T

Executing functionObjects
Computing meanAndVariance on T
Time=1.1241e+06 Mean=0.340063 Var=0.104885
meanAndVariance written to "/data/pmxep5-8/PGSFlowTransport/tutorials/RESULTS/stopConcAdapTmstp/scat_5-lowContrast/TS1/processor0/../postProcessing/fieldMetrics/1.1241e+06"
Computing meanAndVariance of position wrt field T
Time=1.1241e+06 MeanConcX=0.58913 VarConcX=0.203652 MeanConcY=0.497628 VarConcY=0.0812443 MeanConcZ=0.486513 VarConcZ=0.0790889
meanAndVarianceConc written to "/data/pmxep5-8/PGSFlowTransport/tutorials/RESULTS/stopConcAdapTmstp/scat_5-lowContrast/TS1/processor0/../postProcessing/fieldMetrics/1.1241e+06"

Time = 1.14424e+06

Reading fields:
    volScalarFields: T

Executing functionObjects
Computing meanAndVariance on T
Time=1.14424e+06 Mean=0.345065 Var=0.104975
meanAndVariance written to "/data/pmxep5-8/PGSFlowTransport/tutorials/RESULTS/stopConcAdapTmstp/scat_5-lowContrast/TS1/processor0/../postProcessing/fieldMetrics/1.14424e+06"
Computing meanAndVariance of position wrt field T
Time=1.14424e+06 MeanConcX=0.594889 VarConcX=0.206714 MeanConcY=0.497771 VarConcY=0.0812595 MeanConcZ=0.486645 VarConcZ=0.0791085
meanAndVarianceConc written to "/data/pmxep5-8/PGSFlowTransport/tutorials/RESULTS/stopConcAdapTmstp/scat_5-lowContrast/TS1/processor0/../postProcessing/fieldMetrics/1.14424e+06"

Time = 1.16439e+06

Reading fields:
    volScalarFields: T

Executing functionObjects
Computing meanAndVariance on T
Time=1.16439e+06 Mean=0.350029 Var=0.105038
meanAndVariance written to "/data/pmxep5-8/PGSFlowTransport/tutorials/RESULTS/stopConcAdapTmstp/scat_5-lowContrast/TS1/processor0/../postProcessing/fieldMetrics/1.16439e+06"
Computing meanAndVariance of position wrt field T
Time=1.16439e+06 MeanConcX=0.600528 VarConcX=0.20969 MeanConcY=0.497909 VarConcY=0.0812744 MeanConcZ=0.486774 VarConcZ=0.0791285
meanAndVarianceConc written to "/data/pmxep5-8/PGSFlowTransport/tutorials/RESULTS/stopConcAdapTmstp/scat_5-lowContrast/TS1/processor0/../postProcessing/fieldMetrics/1.16439e+06"

Time = 1.18489e+06

Reading fields:
    volScalarFields: T

Executing functionObjects
Computing meanAndVariance on T
Time=1.18489e+06 Mean=0.355041 Var=0.105074
meanAndVariance written to "/data/pmxep5-8/PGSFlowTransport/tutorials/RESULTS/stopConcAdapTmstp/scat_5-lowContrast/TS1/processor0/../postProcessing/fieldMetrics/1.18489e+06"
Computing meanAndVariance of position wrt field T
Time=1.18489e+06 MeanConcX=0.606144 VarConcX=0.212634 MeanConcY=0.498045 VarConcY=0.0812893 MeanConcZ=0.486904 VarConcZ=0.0791492
meanAndVarianceConc written to "/data/pmxep5-8/PGSFlowTransport/tutorials/RESULTS/stopConcAdapTmstp/scat_5-lowContrast/TS1/processor0/../postProcessing/fieldMetrics/1.18489e+06"

Time = 1.2054e+06

Reading fields:
    volScalarFields: T

Executing functionObjects
Computing meanAndVariance on T
Time=1.2054e+06 Mean=0.360013 Var=0.105084
meanAndVariance written to "/data/pmxep5-8/PGSFlowTransport/tutorials/RESULTS/stopConcAdapTmstp/scat_5-lowContrast/TS1/processor0/../postProcessing/fieldMetrics/1.2054e+06"
Computing meanAndVariance of position wrt field T
Time=1.2054e+06 MeanConcX=0.61164 VarConcX=0.215493 MeanConcY=0.498175 VarConcY=0.0813039 MeanConcZ=0.487031 VarConcZ=0.0791704
meanAndVarianceConc written to "/data/pmxep5-8/PGSFlowTransport/tutorials/RESULTS/stopConcAdapTmstp/scat_5-lowContrast/TS1/processor0/../postProcessing/fieldMetrics/1.2054e+06"

Time = 1.22626e+06

Reading fields:
    volScalarFields: T

Executing functionObjects
Computing meanAndVariance on T
Time=1.22626e+06 Mean=0.365029 Var=0.105068
meanAndVariance written to "/data/pmxep5-8/PGSFlowTransport/tutorials/RESULTS/stopConcAdapTmstp/scat_5-lowContrast/TS1/processor0/../postProcessing/fieldMetrics/1.22626e+06"
Computing meanAndVariance of position wrt field T
Time=1.22626e+06 MeanConcX=0.617109 VarConcX=0.218315 MeanConcY=0.498303 VarConcY=0.0813185 MeanConcZ=0.487159 VarConcZ=0.0791922
meanAndVarianceConc written to "/data/pmxep5-8/PGSFlowTransport/tutorials/RESULTS/stopConcAdapTmstp/scat_5-lowContrast/TS1/processor0/../postProcessing/fieldMetrics/1.22626e+06"

Time = 1.24712e+06

Reading fields:
    volScalarFields: T

Executing functionObjects
Computing meanAndVariance on T
Time=1.24712e+06 Mean=0.370004 Var=0.105027
meanAndVariance written to "/data/pmxep5-8/PGSFlowTransport/tutorials/RESULTS/stopConcAdapTmstp/scat_5-lowContrast/TS1/processor0/../postProcessing/fieldMetrics/1.24712e+06"
Computing meanAndVariance of position wrt field T
Time=1.24712e+06 MeanConcX=0.622458 VarConcX=0.221054 MeanConcY=0.498426 VarConcY=0.0813327 MeanConcZ=0.487285 VarConcZ=0.0792143
meanAndVarianceConc written to "/data/pmxep5-8/PGSFlowTransport/tutorials/RESULTS/stopConcAdapTmstp/scat_5-lowContrast/TS1/processor0/../postProcessing/fieldMetrics/1.24712e+06"

Time = 1.26835e+06

Reading fields:
    volScalarFields: T

Executing functionObjects
Computing meanAndVariance on T
Time=1.26835e+06 Mean=0.37502 Var=0.10496
meanAndVariance written to "/data/pmxep5-8/PGSFlowTransport/tutorials/RESULTS/stopConcAdapTmstp/scat_5-lowContrast/TS1/processor0/../postProcessing/fieldMetrics/1.26835e+06"
Computing meanAndVariance of position wrt field T
Time=1.26835e+06 MeanConcX=0.627779 VarConcX=0.223754 MeanConcY=0.498546 VarConcY=0.081347 MeanConcZ=0.48741 VarConcZ=0.079237
meanAndVarianceConc written to "/data/pmxep5-8/PGSFlowTransport/tutorials/RESULTS/stopConcAdapTmstp/scat_5-lowContrast/TS1/processor0/../postProcessing/fieldMetrics/1.26835e+06"

Time = 1.28993e+06

Reading fields:
    volScalarFields: T

Executing functionObjects
Computing meanAndVariance on T
Time=1.28993e+06 Mean=0.380077 Var=0.104867
meanAndVariance written to "/data/pmxep5-8/PGSFlowTransport/tutorials/RESULTS/stopConcAdapTmstp/scat_5-lowContrast/TS1/processor0/../postProcessing/fieldMetrics/1.28993e+06"
Computing meanAndVariance of position wrt field T
Time=1.28993e+06 MeanConcX=0.633067 VarConcX=0.226415 MeanConcY=0.498663 VarConcY=0.0813612 MeanConcZ=0.487536 VarConcZ=0.0792603
meanAndVarianceConc written to "/data/pmxep5-8/PGSFlowTransport/tutorials/RESULTS/stopConcAdapTmstp/scat_5-lowContrast/TS1/processor0/../postProcessing/fieldMetrics/1.28993e+06"

Time = 1.31115e+06

Reading fields:
    volScalarFields: T

Executing functionObjects
Computing meanAndVariance on T
Time=1.31115e+06 Mean=0.385005 Var=0.104753
meanAndVariance written to "/data/pmxep5-8/PGSFlowTransport/tutorials/RESULTS/stopConcAdapTmstp/scat_5-lowContrast/TS1/processor0/../postProcessing/fieldMetrics/1.31115e+06"
Computing meanAndVariance of position wrt field T
Time=1.31115e+06 MeanConcX=0.638151 VarConcX=0.228949 MeanConcY=0.498773 VarConcY=0.0813749 MeanConcZ=0.487658 VarConcZ=0.0792834
meanAndVarianceConc written to "/data/pmxep5-8/PGSFlowTransport/tutorials/RESULTS/stopConcAdapTmstp/scat_5-lowContrast/TS1/processor0/../postProcessing/fieldMetrics/1.31115e+06"

Time = 1.33309e+06

Reading fields:
    volScalarFields: T

Executing functionObjects
Computing meanAndVariance on T
Time=1.33309e+06 Mean=0.390055 Var=0.104613
meanAndVariance written to "/data/pmxep5-8/PGSFlowTransport/tutorials/RESULTS/stopConcAdapTmstp/scat_5-lowContrast/TS1/processor0/../postProcessing/fieldMetrics/1.33309e+06"
Computing meanAndVariance of position wrt field T
Time=1.33309e+06 MeanConcX=0.643287 VarConcX=0.231486 MeanConcY=0.498882 VarConcY=0.0813888 MeanConcZ=0.487783 VarConcZ=0.0793075
meanAndVarianceConc written to "/data/pmxep5-8/PGSFlowTransport/tutorials/RESULTS/stopConcAdapTmstp/scat_5-lowContrast/TS1/processor0/../postProcessing/fieldMetrics/1.33309e+06"

Time = 1.35504e+06

Reading fields:
    volScalarFields: T

Executing functionObjects
Computing meanAndVariance on T
Time=1.35504e+06 Mean=0.395059 Var=0.10445
meanAndVariance written to "/data/pmxep5-8/PGSFlowTransport/tutorials/RESULTS/stopConcAdapTmstp/scat_5-lowContrast/TS1/processor0/../postProcessing/fieldMetrics/1.35504e+06"
Computing meanAndVariance of position wrt field T
Time=1.35504e+06 MeanConcX=0.648306 VarConcX=0.233942 MeanConcY=0.498986 VarConcY=0.0814023 MeanConcZ=0.487905 VarConcZ=0.0793318
meanAndVarianceConc written to "/data/pmxep5-8/PGSFlowTransport/tutorials/RESULTS/stopConcAdapTmstp/scat_5-lowContrast/TS1/processor0/../postProcessing/fieldMetrics/1.35504e+06"

Time = 1.37698e+06

Reading fields:
    volScalarFields: T

Executing functionObjects
Computing meanAndVariance on T
Time=1.37698e+06 Mean=0.400016 Var=0.104266
meanAndVariance written to "/data/pmxep5-8/PGSFlowTransport/tutorials/RESULTS/stopConcAdapTmstp/scat_5-lowContrast/TS1/processor0/../postProcessing/fieldMetrics/1.37698e+06"
Computing meanAndVariance of position wrt field T
Time=1.37698e+06 MeanConcX=0.65321 VarConcX=0.236318 MeanConcY=0.499085 VarConcY=0.0814156 MeanConcZ=0.488026 VarConcZ=0.0793562
meanAndVarianceConc written to "/data/pmxep5-8/PGSFlowTransport/tutorials/RESULTS/stopConcAdapTmstp/scat_5-lowContrast/TS1/processor0/../postProcessing/fieldMetrics/1.37698e+06"

Time = 1.39928e+06

Reading fields:
    volScalarFields: T

Executing functionObjects
Computing meanAndVariance on T
Time=1.39928e+06 Mean=0.405008 Var=0.104059
meanAndVariance written to "/data/pmxep5-8/PGSFlowTransport/tutorials/RESULTS/stopConcAdapTmstp/scat_5-lowContrast/TS1/processor0/../postProcessing/fieldMetrics/1.39928e+06"
Computing meanAndVariance of position wrt field T
Time=1.39928e+06 MeanConcX=0.658081 VarConcX=0.238655 MeanConcY=0.499182 VarConcY=0.081429 MeanConcZ=0.488148 VarConcZ=0.0793811
meanAndVarianceConc written to "/data/pmxep5-8/PGSFlowTransport/tutorials/RESULTS/stopConcAdapTmstp/scat_5-lowContrast/TS1/processor0/../postProcessing/fieldMetrics/1.39928e+06"

Time = 1.42194e+06

Reading fields:
    volScalarFields: T

Executing functionObjects
Computing meanAndVariance on T
Time=1.42194e+06 Mean=0.410032 Var=0.103827
meanAndVariance written to "/data/pmxep5-8/PGSFlowTransport/tutorials/RESULTS/stopConcAdapTmstp/scat_5-lowContrast/TS1/processor0/../postProcessing/fieldMetrics/1.42194e+06"
Computing meanAndVariance of position wrt field T
Time=1.42194e+06 MeanConcX=0.662917 VarConcX=0.240951 MeanConcY=0.499275 VarConcY=0.0814422 MeanConcZ=0.488269 VarConcZ=0.0794065
meanAndVarianceConc written to "/data/pmxep5-8/PGSFlowTransport/tutorials/RESULTS/stopConcAdapTmstp/scat_5-lowContrast/TS1/processor0/../postProcessing/fieldMetrics/1.42194e+06"

Time = 1.4446e+06

Reading fields:
    volScalarFields: T

Executing functionObjects
Computing meanAndVariance on T
Time=1.4446e+06 Mean=0.415008 Var=0.103576
meanAndVariance written to "/data/pmxep5-8/PGSFlowTransport/tutorials/RESULTS/stopConcAdapTmstp/scat_5-lowContrast/TS1/processor0/../postProcessing/fieldMetrics/1.4446e+06"
Computing meanAndVariance of position wrt field T
Time=1.4446e+06 MeanConcX=0.667641 VarConcX=0.243172 MeanConcY=0.499364 VarConcY=0.0814551 MeanConcZ=0.48839 VarConcZ=0.0794319
meanAndVarianceConc written to "/data/pmxep5-8/PGSFlowTransport/tutorials/RESULTS/stopConcAdapTmstp/scat_5-lowContrast/TS1/processor0/../postProcessing/fieldMetrics/1.4446e+06"

Time = 1.46763e+06

Reading fields:
    volScalarFields: T

Executing functionObjects
Computing meanAndVariance on T
Time=1.46763e+06 Mean=0.420014 Var=0.103302
meanAndVariance written to "/data/pmxep5-8/PGSFlowTransport/tutorials/RESULTS/stopConcAdapTmstp/scat_5-lowContrast/TS1/processor0/../postProcessing/fieldMetrics/1.46763e+06"
Computing meanAndVariance of position wrt field T
Time=1.46763e+06 MeanConcX=0.672329 VarConcX=0.245353 MeanConcY=0.49945 VarConcY=0.0814681 MeanConcZ=0.48851 VarConcZ=0.0794579
meanAndVarianceConc written to "/data/pmxep5-8/PGSFlowTransport/tutorials/RESULTS/stopConcAdapTmstp/scat_5-lowContrast/TS1/processor0/../postProcessing/fieldMetrics/1.46763e+06"

Time = 1.49101e+06

Reading fields:
    volScalarFields: T

Executing functionObjects
Computing meanAndVariance on T
Time=1.49101e+06 Mean=0.425048 Var=0.103005
meanAndVariance written to "/data/pmxep5-8/PGSFlowTransport/tutorials/RESULTS/stopConcAdapTmstp/scat_5-lowContrast/TS1/processor0/../postProcessing/fieldMetrics/1.49101e+06"
Computing meanAndVariance of position wrt field T
Time=1.49101e+06 MeanConcX=0.676978 VarConcX=0.247492 MeanConcY=0.499533 VarConcY=0.0814809 MeanConcZ=0.488632 VarConcZ=0.0794842
meanAndVarianceConc written to "/data/pmxep5-8/PGSFlowTransport/tutorials/RESULTS/stopConcAdapTmstp/scat_5-lowContrast/TS1/processor0/../postProcessing/fieldMetrics/1.49101e+06"

Time = 1.51439e+06

Reading fields:
    volScalarFields: T

Executing functionObjects
Computing meanAndVariance on T
Time=1.51439e+06 Mean=0.430032 Var=0.102691
meanAndVariance written to "/data/pmxep5-8/PGSFlowTransport/tutorials/RESULTS/stopConcAdapTmstp/scat_5-lowContrast/TS1/processor0/../postProcessing/fieldMetrics/1.51439e+06"
Computing meanAndVariance of position wrt field T
Time=1.51439e+06 MeanConcX=0.681519 VarConcX=0.249559 MeanConcY=0.499612 VarConcY=0.0814936 MeanConcZ=0.488751 VarConcZ=0.0795106
meanAndVarianceConc written to "/data/pmxep5-8/PGSFlowTransport/tutorials/RESULTS/stopConcAdapTmstp/scat_5-lowContrast/TS1/processor0/../postProcessing/fieldMetrics/1.51439e+06"

Time = 1.53813e+06

Reading fields:
    volScalarFields: T

Executing functionObjects
Computing meanAndVariance on T
Time=1.53813e+06 Mean=0.435042 Var=0.102354
meanAndVariance written to "/data/pmxep5-8/PGSFlowTransport/tutorials/RESULTS/stopConcAdapTmstp/scat_5-lowContrast/TS1/processor0/../postProcessing/fieldMetrics/1.53813e+06"
Computing meanAndVariance of position wrt field T
Time=1.53813e+06 MeanConcX=0.686022 VarConcX=0.251585 MeanConcY=0.499687 VarConcY=0.0815062 MeanConcZ=0.488872 VarConcZ=0.0795373
meanAndVarianceConc written to "/data/pmxep5-8/PGSFlowTransport/tutorials/RESULTS/stopConcAdapTmstp/scat_5-lowContrast/TS1/processor0/../postProcessing/fieldMetrics/1.53813e+06"

Time = 1.56187e+06

Reading fields:
    volScalarFields: T

Executing functionObjects
Computing meanAndVariance on T
Time=1.56187e+06 Mean=0.440001 Var=0.102
meanAndVariance written to "/data/pmxep5-8/PGSFlowTransport/tutorials/RESULTS/stopConcAdapTmstp/scat_5-lowContrast/TS1/processor0/../postProcessing/fieldMetrics/1.56187e+06"
Computing meanAndVariance of position wrt field T
Time=1.56187e+06 MeanConcX=0.69042 VarConcX=0.253543 MeanConcY=0.499759 VarConcY=0.0815185 MeanConcZ=0.488991 VarConcZ=0.079564
meanAndVarianceConc written to "/data/pmxep5-8/PGSFlowTransport/tutorials/RESULTS/stopConcAdapTmstp/scat_5-lowContrast/TS1/processor0/../postProcessing/fieldMetrics/1.56187e+06"

Time = 1.58633e+06

Reading fields:
    volScalarFields: T

Executing functionObjects
Computing meanAndVariance on T
Time=1.58633e+06 Mean=0.445059 Var=0.101619
meanAndVariance written to "/data/pmxep5-8/PGSFlowTransport/tutorials/RESULTS/stopConcAdapTmstp/scat_5-lowContrast/TS1/processor0/../postProcessing/fieldMetrics/1.58633e+06"
Computing meanAndVariance of position wrt field T
Time=1.58633e+06 MeanConcX=0.694846 VarConcX=0.25549 MeanConcY=0.499828 VarConcY=0.081531 MeanConcZ=0.489112 VarConcZ=0.0795915
meanAndVarianceConc written to "/data/pmxep5-8/PGSFlowTransport/tutorials/RESULTS/stopConcAdapTmstp/scat_5-lowContrast/TS1/processor0/../postProcessing/fieldMetrics/1.58633e+06"

Time = 1.61079e+06

Reading fields:
    volScalarFields: T

Executing functionObjects
Computing meanAndVariance on T
Time=1.61079e+06 Mean=0.450064 Var=0.101222
meanAndVariance written to "/data/pmxep5-8/PGSFlowTransport/tutorials/RESULTS/stopConcAdapTmstp/scat_5-lowContrast/TS1/processor0/../postProcessing/fieldMetrics/1.61079e+06"
Computing meanAndVariance of position wrt field T
Time=1.61079e+06 MeanConcX=0.699168 VarConcX=0.25737 MeanConcY=0.499894 VarConcY=0.0815433 MeanConcZ=0.489232 VarConcZ=0.0796189
meanAndVarianceConc written to "/data/pmxep5-8/PGSFlowTransport/tutorials/RESULTS/stopConcAdapTmstp/scat_5-lowContrast/TS1/processor0/../postProcessing/fieldMetrics/1.61079e+06"

Time = 1.63525e+06

Reading fields:
    volScalarFields: T

Executing functionObjects
Computing meanAndVariance on T
Time=1.63525e+06 Mean=0.455018 Var=0.100809
meanAndVariance written to "/data/pmxep5-8/PGSFlowTransport/tutorials/RESULTS/stopConcAdapTmstp/scat_5-lowContrast/TS1/processor0/../postProcessing/fieldMetrics/1.63525e+06"
Computing meanAndVariance of position wrt field T
Time=1.63525e+06 MeanConcX=0.70339 VarConcX=0.259185 MeanConcY=0.499956 VarConcY=0.0815552 MeanConcZ=0.48935 VarConcZ=0.0796462
meanAndVarianceConc written to "/data/pmxep5-8/PGSFlowTransport/tutorials/RESULTS/stopConcAdapTmstp/scat_5-lowContrast/TS1/processor0/../postProcessing/fieldMetrics/1.63525e+06"

Time = 1.66043e+06

Reading fields:
    volScalarFields: T

Executing functionObjects
Computing meanAndVariance on T
Time=1.66043e+06 Mean=0.460063 Var=0.10037
meanAndVariance written to "/data/pmxep5-8/PGSFlowTransport/tutorials/RESULTS/stopConcAdapTmstp/scat_5-lowContrast/TS1/processor0/../postProcessing/fieldMetrics/1.66043e+06"
Computing meanAndVariance of position wrt field T
Time=1.66043e+06 MeanConcX=0.707635 VarConcX=0.260989 MeanConcY=0.500015 VarConcY=0.0815673 MeanConcZ=0.489471 VarConcZ=0.0796742
meanAndVarianceConc written to "/data/pmxep5-8/PGSFlowTransport/tutorials/RESULTS/stopConcAdapTmstp/scat_5-lowContrast/TS1/processor0/../postProcessing/fieldMetrics/1.66043e+06"

Time = 1.68561e+06

Reading fields:
    volScalarFields: T

Executing functionObjects
Computing meanAndVariance on T
Time=1.68561e+06 Mean=0.465056 Var=0.0999161
meanAndVariance written to "/data/pmxep5-8/PGSFlowTransport/tutorials/RESULTS/stopConcAdapTmstp/scat_5-lowContrast/TS1/processor0/../postProcessing/fieldMetrics/1.68561e+06"
Computing meanAndVariance of position wrt field T
Time=1.68561e+06 MeanConcX=0.711781 VarConcX=0.26273 MeanConcY=0.500071 VarConcY=0.0815791 MeanConcZ=0.48959 VarConcZ=0.0797021
meanAndVarianceConc written to "/data/pmxep5-8/PGSFlowTransport/tutorials/RESULTS/stopConcAdapTmstp/scat_5-lowContrast/TS1/processor0/../postProcessing/fieldMetrics/1.68561e+06"

Time = 1.71115e+06

Reading fields:
    volScalarFields: T

Executing functionObjects
Computing meanAndVariance on T
Time=1.71115e+06 Mean=0.470066 Var=0.0994419
meanAndVariance written to "/data/pmxep5-8/PGSFlowTransport/tutorials/RESULTS/stopConcAdapTmstp/scat_5-lowContrast/TS1/processor0/../postProcessing/fieldMetrics/1.71115e+06"
Computing meanAndVariance of position wrt field T
Time=1.71115e+06 MeanConcX=0.715888 VarConcX=0.264434 MeanConcY=0.500125 VarConcY=0.0815909 MeanConcZ=0.48971 VarConcZ=0.0797301
meanAndVarianceConc written to "/data/pmxep5-8/PGSFlowTransport/tutorials/RESULTS/stopConcAdapTmstp/scat_5-lowContrast/TS1/processor0/../postProcessing/fieldMetrics/1.71115e+06"

Time = 1.73669e+06

Reading fields:
    volScalarFields: T

Executing functionObjects
Computing meanAndVariance on T
Time=1.73669e+06 Mean=0.475022 Var=0.0989544
meanAndVariance written to "/data/pmxep5-8/PGSFlowTransport/tutorials/RESULTS/stopConcAdapTmstp/scat_5-lowContrast/TS1/processor0/../postProcessing/fieldMetrics/1.73669e+06"
Computing meanAndVariance of position wrt field T
Time=1.73669e+06 MeanConcX=0.7199 VarConcX=0.26608 MeanConcY=0.500174 VarConcY=0.0816024 MeanConcZ=0.489829 VarConcZ=0.079758
meanAndVarianceConc written to "/data/pmxep5-8/PGSFlowTransport/tutorials/RESULTS/stopConcAdapTmstp/scat_5-lowContrast/TS1/processor0/../postProcessing/fieldMetrics/1.73669e+06"

Time = 1.76295e+06

Reading fields:
    volScalarFields: T

Executing functionObjects
Computing meanAndVariance on T
Time=1.76295e+06 Mean=0.480062 Var=0.0984399
meanAndVariance written to "/data/pmxep5-8/PGSFlowTransport/tutorials/RESULTS/stopConcAdapTmstp/scat_5-lowContrast/TS1/processor0/../postProcessing/fieldMetrics/1.76295e+06"
Computing meanAndVariance of position wrt field T
Time=1.76295e+06 MeanConcX=0.72393 VarConcX=0.267712 MeanConcY=0.500222 VarConcY=0.081614 MeanConcZ=0.48995 VarConcZ=0.0797864
meanAndVarianceConc written to "/data/pmxep5-8/PGSFlowTransport/tutorials/RESULTS/stopConcAdapTmstp/scat_5-lowContrast/TS1/processor0/../postProcessing/fieldMetrics/1.76295e+06"

Time = 1.78921e+06

Reading fields:
    volScalarFields: T

Executing functionObjects
Computing meanAndVariance on T
Time=1.78921e+06 Mean=0.485048 Var=0.0979129
meanAndVariance written to "/data/pmxep5-8/PGSFlowTransport/tutorials/RESULTS/stopConcAdapTmstp/scat_5-lowContrast/TS1/processor0/../postProcessing/fieldMetrics/1.78921e+06"
Computing meanAndVariance of position wrt field T
Time=1.78921e+06 MeanConcX=0.727867 VarConcX=0.269288 MeanConcY=0.500267 VarConcY=0.0816254 MeanConcZ=0.490069 VarConcZ=0.0798146
meanAndVarianceConc written to "/data/pmxep5-8/PGSFlowTransport/tutorials/RESULTS/stopConcAdapTmstp/scat_5-lowContrast/TS1/processor0/../postProcessing/fieldMetrics/1.78921e+06"

Time = 1.81583e+06

Reading fields:
    volScalarFields: T

Executing functionObjects
Computing meanAndVariance on T
Time=1.81583e+06 Mean=0.490046 Var=0.0973667
meanAndVariance written to "/data/pmxep5-8/PGSFlowTransport/tutorials/RESULTS/stopConcAdapTmstp/scat_5-lowContrast/TS1/processor0/../postProcessing/fieldMetrics/1.81583e+06"
Computing meanAndVariance of position wrt field T
Time=1.81583e+06 MeanConcX=0.731765 VarConcX=0.27083 MeanConcY=0.500309 VarConcY=0.0816366 MeanConcZ=0.490189 VarConcZ=0.0798429
meanAndVarianceConc written to "/data/pmxep5-8/PGSFlowTransport/tutorials/RESULTS/stopConcAdapTmstp/scat_5-lowContrast/TS1/processor0/../postProcessing/fieldMetrics/1.81583e+06"

Time = 1.84281e+06

Reading fields:
    volScalarFields: T

Executing functionObjects
Computing meanAndVariance on T
Time=1.84281e+06 Mean=0.495056 Var=0.0968016
meanAndVariance written to "/data/pmxep5-8/PGSFlowTransport/tutorials/RESULTS/stopConcAdapTmstp/scat_5-lowContrast/TS1/processor0/../postProcessing/fieldMetrics/1.84281e+06"
Computing meanAndVariance of position wrt field T
Time=1.84281e+06 MeanConcX=0.735625 VarConcX=0.272338 MeanConcY=0.500349 VarConcY=0.0816478 MeanConcZ=0.49031 VarConcZ=0.0798714
meanAndVarianceConc written to "/data/pmxep5-8/PGSFlowTransport/tutorials/RESULTS/stopConcAdapTmstp/scat_5-lowContrast/TS1/processor0/../postProcessing/fieldMetrics/1.84281e+06"

Time = 1.86978e+06

Reading fields:
    volScalarFields: T

Executing functionObjects
Computing meanAndVariance on T
Time=1.86978e+06 Mean=0.500009 Var=0.0962256
meanAndVariance written to "/data/pmxep5-8/PGSFlowTransport/tutorials/RESULTS/stopConcAdapTmstp/scat_5-lowContrast/TS1/processor0/../postProcessing/fieldMetrics/1.86978e+06"
Computing meanAndVariance of position wrt field T
Time=1.86978e+06 MeanConcX=0.739396 VarConcX=0.273793 MeanConcY=0.500386 VarConcY=0.0816587 MeanConcZ=0.490429 VarConcZ=0.0798996
meanAndVarianceConc written to "/data/pmxep5-8/PGSFlowTransport/tutorials/RESULTS/stopConcAdapTmstp/scat_5-lowContrast/TS1/processor0/../postProcessing/fieldMetrics/1.86978e+06"

Time = 1.89748e+06

Reading fields:
    volScalarFields: T

Executing functionObjects
Computing meanAndVariance on T
Time=1.89748e+06 Mean=0.505038 Var=0.0956237
meanAndVariance written to "/data/pmxep5-8/PGSFlowTransport/tutorials/RESULTS/stopConcAdapTmstp/scat_5-lowContrast/TS1/processor0/../postProcessing/fieldMetrics/1.89748e+06"
Computing meanAndVariance of position wrt field T
Time=1.89748e+06 MeanConcX=0.743178 VarConcX=0.275235 MeanConcY=0.500421 VarConcY=0.0816696 MeanConcZ=0.49055 VarConcZ=0.0799283
meanAndVarianceConc written to "/data/pmxep5-8/PGSFlowTransport/tutorials/RESULTS/stopConcAdapTmstp/scat_5-lowContrast/TS1/processor0/../postProcessing/fieldMetrics/1.89748e+06"

Time = 1.92518e+06

Reading fields:
    volScalarFields: T

Executing functionObjects
Computing meanAndVariance on T
Time=1.92518e+06 Mean=0.51001 Var=0.0950118
meanAndVariance written to "/data/pmxep5-8/PGSFlowTransport/tutorials/RESULTS/stopConcAdapTmstp/scat_5-lowContrast/TS1/processor0/../postProcessing/fieldMetrics/1.92518e+06"
Computing meanAndVariance of position wrt field T
Time=1.92518e+06 MeanConcX=0.746874 VarConcX=0.276627 MeanConcY=0.500454 VarConcY=0.0816803 MeanConcZ=0.49067 VarConcZ=0.0799568
meanAndVarianceConc written to "/data/pmxep5-8/PGSFlowTransport/tutorials/RESULTS/stopConcAdapTmstp/scat_5-lowContrast/TS1/processor0/../postProcessing/fieldMetrics/1.92518e+06"

Time = 1.9536e+06

Reading fields:
    volScalarFields: T

Executing functionObjects
Computing meanAndVariance on T
Time=1.9536e+06 Mean=0.515053 Var=0.0943741
meanAndVariance written to "/data/pmxep5-8/PGSFlowTransport/tutorials/RESULTS/stopConcAdapTmstp/scat_5-lowContrast/TS1/processor0/../postProcessing/fieldMetrics/1.9536e+06"
Computing meanAndVariance of position wrt field T
Time=1.9536e+06 MeanConcX=0.75058 VarConcX=0.278005 MeanConcY=0.500485 VarConcY=0.0816909 MeanConcZ=0.490791 VarConcZ=0.0799857
meanAndVarianceConc written to "/data/pmxep5-8/PGSFlowTransport/tutorials/RESULTS/stopConcAdapTmstp/scat_5-lowContrast/TS1/processor0/../postProcessing/fieldMetrics/1.9536e+06"

Time = 1.98201e+06

Reading fields:
    volScalarFields: T

Executing functionObjects
Computing meanAndVariance on T
Time=1.98201e+06 Mean=0.520038 Var=0.0937272
meanAndVariance written to "/data/pmxep5-8/PGSFlowTransport/tutorials/RESULTS/stopConcAdapTmstp/scat_5-lowContrast/TS1/processor0/../postProcessing/fieldMetrics/1.98201e+06"
Computing meanAndVariance of position wrt field T
Time=1.98201e+06 MeanConcX=0.754201 VarConcX=0.279335 MeanConcY=0.500513 VarConcY=0.0817014 MeanConcZ=0.490911 VarConcZ=0.0800142
meanAndVarianceConc written to "/data/pmxep5-8/PGSFlowTransport/tutorials/RESULTS/stopConcAdapTmstp/scat_5-lowContrast/TS1/processor0/../postProcessing/fieldMetrics/1.98201e+06"

Time = 2.01079e+06

Reading fields:
    volScalarFields: T

Executing functionObjects
Computing meanAndVariance on T
Time=2.01079e+06 Mean=0.525027 Var=0.0930636
meanAndVariance written to "/data/pmxep5-8/PGSFlowTransport/tutorials/RESULTS/stopConcAdapTmstp/scat_5-lowContrast/TS1/processor0/../postProcessing/fieldMetrics/2.01079e+06"
Computing meanAndVariance of position wrt field T
Time=2.01079e+06 MeanConcX=0.757783 VarConcX=0.280634 MeanConcY=0.500539 VarConcY=0.0817117 MeanConcZ=0.491031 VarConcZ=0.0800428
meanAndVarianceConc written to "/data/pmxep5-8/PGSFlowTransport/tutorials/RESULTS/stopConcAdapTmstp/scat_5-lowContrast/TS1/processor0/../postProcessing/fieldMetrics/2.01079e+06"

Time = 2.03993e+06

Reading fields:
    volScalarFields: T

Executing functionObjects
Computing meanAndVariance on T
Time=2.03993e+06 Mean=0.53002 Var=0.0923837
meanAndVariance written to "/data/pmxep5-8/PGSFlowTransport/tutorials/RESULTS/stopConcAdapTmstp/scat_5-lowContrast/TS1/processor0/../postProcessing/fieldMetrics/2.03993e+06"
Computing meanAndVariance of position wrt field T
Time=2.03993e+06 MeanConcX=0.761328 VarConcX=0.281904 MeanConcY=0.500564 VarConcY=0.081722 MeanConcZ=0.491151 VarConcZ=0.0800715
meanAndVarianceConc written to "/data/pmxep5-8/PGSFlowTransport/tutorials/RESULTS/stopConcAdapTmstp/scat_5-lowContrast/TS1/processor0/../postProcessing/fieldMetrics/2.03993e+06"

Time = 2.06942e+06

Reading fields:
    volScalarFields: T

Executing functionObjects
Computing meanAndVariance on T
Time=2.06942e+06 Mean=0.535014 Var=0.0916878
meanAndVariance written to "/data/pmxep5-8/PGSFlowTransport/tutorials/RESULTS/stopConcAdapTmstp/scat_5-lowContrast/TS1/processor0/../postProcessing/fieldMetrics/2.06942e+06"
Computing meanAndVariance of position wrt field T
Time=2.06942e+06 MeanConcX=0.764834 VarConcX=0.283143 MeanConcY=0.500586 VarConcY=0.0817321 MeanConcZ=0.491271 VarConcZ=0.0801002
meanAndVarianceConc written to "/data/pmxep5-8/PGSFlowTransport/tutorials/RESULTS/stopConcAdapTmstp/scat_5-lowContrast/TS1/processor0/../postProcessing/fieldMetrics/2.06942e+06"

Time = 2.09928e+06

Reading fields:
    volScalarFields: T

Executing functionObjects
Computing meanAndVariance on T
Time=2.09928e+06 Mean=0.54001 Var=0.0909762
meanAndVariance written to "/data/pmxep5-8/PGSFlowTransport/tutorials/RESULTS/stopConcAdapTmstp/scat_5-lowContrast/TS1/processor0/../postProcessing/fieldMetrics/2.09928e+06"
Computing meanAndVariance of position wrt field T
Time=2.09928e+06 MeanConcX=0.768303 VarConcX=0.284354 MeanConcY=0.500607 VarConcY=0.0817421 MeanConcZ=0.491391 VarConcZ=0.0801289
meanAndVarianceConc written to "/data/pmxep5-8/PGSFlowTransport/tutorials/RESULTS/stopConcAdapTmstp/scat_5-lowContrast/TS1/processor0/../postProcessing/fieldMetrics/2.09928e+06"

Time = 2.1295e+06

Reading fields:
    volScalarFields: T

Executing functionObjects
Computing meanAndVariance on T
Time=2.1295e+06 Mean=0.545006 Var=0.0902494
meanAndVariance written to "/data/pmxep5-8/PGSFlowTransport/tutorials/RESULTS/stopConcAdapTmstp/scat_5-lowContrast/TS1/processor0/../postProcessing/fieldMetrics/2.1295e+06"
Computing meanAndVariance of position wrt field T
Time=2.1295e+06 MeanConcX=0.771734 VarConcX=0.285537 MeanConcY=0.500625 VarConcY=0.081752 MeanConcZ=0.491511 VarConcZ=0.0801577
meanAndVarianceConc written to "/data/pmxep5-8/PGSFlowTransport/tutorials/RESULTS/stopConcAdapTmstp/scat_5-lowContrast/TS1/processor0/../postProcessing/fieldMetrics/2.1295e+06"

Time = 2.16043e+06

Reading fields:
    volScalarFields: T

Executing functionObjects
Computing meanAndVariance on T
Time=2.16043e+06 Mean=0.550058 Var=0.0894989
meanAndVariance written to "/data/pmxep5-8/PGSFlowTransport/tutorials/RESULTS/stopConcAdapTmstp/scat_5-lowContrast/TS1/processor0/../postProcessing/fieldMetrics/2.16043e+06"
Computing meanAndVariance of position wrt field T
Time=2.16043e+06 MeanConcX=0.775167 VarConcX=0.286705 MeanConcY=0.500642 VarConcY=0.081762 MeanConcZ=0.491632 VarConcZ=0.0801868
meanAndVarianceConc written to "/data/pmxep5-8/PGSFlowTransport/tutorials/RESULTS/stopConcAdapTmstp/scat_5-lowContrast/TS1/processor0/../postProcessing/fieldMetrics/2.16043e+06"

Time = 2.19137e+06

Reading fields:
    volScalarFields: T

Executing functionObjects
Computing meanAndVariance on T
Time=2.19137e+06 Mean=0.555049 Var=0.0887425
meanAndVariance written to "/data/pmxep5-8/PGSFlowTransport/tutorials/RESULTS/stopConcAdapTmstp/scat_5-lowContrast/TS1/processor0/../postProcessing/fieldMetrics/2.19137e+06"
Computing meanAndVariance of position wrt field T
Time=2.19137e+06 MeanConcX=0.778523 VarConcX=0.287833 MeanConcY=0.500658 VarConcY=0.0817716 MeanConcZ=0.491751 VarConcZ=0.0802155
meanAndVarianceConc written to "/data/pmxep5-8/PGSFlowTransport/tutorials/RESULTS/stopConcAdapTmstp/scat_5-lowContrast/TS1/processor0/../postProcessing/fieldMetrics/2.19137e+06"

Time = 2.22266e+06

Reading fields:
    volScalarFields: T

Executing functionObjects
Computing meanAndVariance on T
Time=2.22266e+06 Mean=0.560036 Var=0.0879721
meanAndVariance written to "/data/pmxep5-8/PGSFlowTransport/tutorials/RESULTS/stopConcAdapTmstp/scat_5-lowContrast/TS1/processor0/../postProcessing/fieldMetrics/2.22266e+06"
Computing meanAndVariance of position wrt field T
Time=2.22266e+06 MeanConcX=0.781841 VarConcX=0.288934 MeanConcY=0.500671 VarConcY=0.0817811 MeanConcZ=0.491871 VarConcZ=0.0802442
meanAndVarianceConc written to "/data/pmxep5-8/PGSFlowTransport/tutorials/RESULTS/stopConcAdapTmstp/scat_5-lowContrast/TS1/processor0/../postProcessing/fieldMetrics/2.22266e+06"

Time = 2.25432e+06

Reading fields:
    volScalarFields: T

Executing functionObjects
Computing meanAndVariance on T
Time=2.25432e+06 Mean=0.565017 Var=0.0871882
meanAndVariance written to "/data/pmxep5-8/PGSFlowTransport/tutorials/RESULTS/stopConcAdapTmstp/scat_5-lowContrast/TS1/processor0/../postProcessing/fieldMetrics/2.25432e+06"
Computing meanAndVariance of position wrt field T
Time=2.25432e+06 MeanConcX=0.78512 VarConcX=0.290008 MeanConcY=0.500684 VarConcY=0.0817906 MeanConcZ=0.49199 VarConcZ=0.0802728
meanAndVarianceConc written to "/data/pmxep5-8/PGSFlowTransport/tutorials/RESULTS/stopConcAdapTmstp/scat_5-lowContrast/TS1/processor0/../postProcessing/fieldMetrics/2.25432e+06"

Time = 2.28669e+06

Reading fields:
    volScalarFields: T

Executing functionObjects
Computing meanAndVariance on T
Time=2.28669e+06 Mean=0.570048 Var=0.0863823
meanAndVariance written to "/data/pmxep5-8/PGSFlowTransport/tutorials/RESULTS/stopConcAdapTmstp/scat_5-lowContrast/TS1/processor0/../postProcessing/fieldMetrics/2.28669e+06"
Computing meanAndVariance of position wrt field T
Time=2.28669e+06 MeanConcX=0.788398 VarConcX=0.291068 MeanConcY=0.500694 VarConcY=0.0818001 MeanConcZ=0.49211 VarConcZ=0.0803018
meanAndVarianceConc written to "/data/pmxep5-8/PGSFlowTransport/tutorials/RESULTS/stopConcAdapTmstp/scat_5-lowContrast/TS1/processor0/../postProcessing/fieldMetrics/2.28669e+06"

Time = 2.31906e+06

Reading fields:
    volScalarFields: T

Executing functionObjects
Computing meanAndVariance on T
Time=2.31906e+06 Mean=0.575015 Var=0.0855726
[...]

Time = 5.63201e+06

Reading fields:
    volScalarFields: T

Executing functionObjects
Computing meanAndVariance on T
Time=5.63201e+06 Mean=0.865001 Var=0.0233333
meanAndVariance written to "/data/pmxep5-8/PGSFlowTransport/tutorials/RESULTS/stopConcAdapTmstp/scat_5-lowContrast/TS1/processor0/../postProcessing/fieldMetrics/5.63201e+06"
Computing meanAndVariance of position wrt field T
Time=5.63201e+06 MeanConcX=0.941162 VarConcX=0.325869 MeanConcY=0.500029 VarConcY=0.0824145 MeanConcZ=0.498458 VarConcZ=0.0820407
meanAndVarianceConc written to "/data/pmxep5-8/PGSFlowTransport/tutorials/RESULTS/stopConcAdapTmstp/scat_5-lowContrast/TS1/processor0/../postProcessing/fieldMetrics/5.63201e+06"

Time = 5.74424e+06

Reading fields:
    volScalarFields: T

Executing functionObjects
Computing meanAndVariance on T
Time=5.74424e+06 Mean=0.870003 Var=0.0222052
meanAndVariance written to "/data/pmxep5-8/PGSFlowTransport/tutorials/RESULTS/stopConcAdapTmstp/scat_5-lowContrast/TS1/processor0/../postProcessing/fieldMetrics/5.74424e+06"
Computing meanAndVariance of position wrt field T
Time=5.74424e+06 MeanConcX=0.943343 VarConcX=0.326182 MeanConcY=0.50001 VarConcY=0.0824301 MeanConcZ=0.498542 VarConcZ=0.0820741
meanAndVarianceConc written to "/data/pmxep5-8/PGSFlowTransport/tutorials/RESULTS/stopConcAdapTmstp/scat_5-lowContrast/TS1/processor0/../postProcessing/fieldMetrics/5.74424e+06"

Time = 5.86115e+06

Reading fields:
    volScalarFields: T

Executing functionObjects
Computing meanAndVariance on T
Time=5.86115e+06 Mean=0.875009 Var=0.0210847
meanAndVariance written to "/data/pmxep5-8/PGSFlowTransport/tutorials/RESULTS/stopConcAdapTmstp/scat_5-lowContrast/TS1/processor0/../postProcessing/fieldMetrics/5.86115e+06"
Computing meanAndVariance of position wrt field T
Time=5.86115e+06 MeanConcX=0.94552 VarConcX=0.32649 MeanConcY=0.499991 VarConcY=0.0824461 MeanConcZ=0.498624 VarConcZ=0.0821078
meanAndVarianceConc written to "/data/pmxep5-8/PGSFlowTransport/tutorials/RESULTS/stopConcAdapTmstp/scat_5-lowContrast/TS1/processor0/../postProcessing/fieldMetrics/5.86115e+06"

Time = 5.98273e+06

Reading fields:
    volScalarFields: T

Executing functionObjects
Computing meanAndVariance on T
Time=5.98273e+06 Mean=0.880002 Var=0.019976
meanAndVariance written to "/data/pmxep5-8/PGSFlowTransport/tutorials/RESULTS/stopConcAdapTmstp/scat_5-lowContrast/TS1/processor0/../postProcessing/fieldMetrics/5.98273e+06"
Computing meanAndVariance of position wrt field T
Time=5.98273e+06 MeanConcX=0.947685 VarConcX=0.326793 MeanConcY=0.499973 VarConcY=0.0824626 MeanConcZ=0.498704 VarConcZ=0.0821419
meanAndVarianceConc written to "/data/pmxep5-8/PGSFlowTransport/tutorials/RESULTS/stopConcAdapTmstp/scat_5-lowContrast/TS1/processor0/../postProcessing/fieldMetrics/5.98273e+06"

Time = 6.11007e+06

Reading fields:
    volScalarFields: T

Executing functionObjects
Computing meanAndVariance on T
Time=6.11007e+06 Mean=0.88501 Var=0.0188739
meanAndVariance written to "/data/pmxep5-8/PGSFlowTransport/tutorials/RESULTS/stopConcAdapTmstp/scat_5-lowContrast/TS1/processor0/../postProcessing/fieldMetrics/6.11007e+06"
Computing meanAndVariance of position wrt field T
Time=6.11007e+06 MeanConcX=0.949851 VarConcX=0.327092 MeanConcY=0.499954 VarConcY=0.0824795 MeanConcZ=0.498784 VarConcZ=0.0821764
meanAndVarianceConc written to "/data/pmxep5-8/PGSFlowTransport/tutorials/RESULTS/stopConcAdapTmstp/scat_5-lowContrast/TS1/processor0/../postProcessing/fieldMetrics/6.11007e+06"

Time = 6.24317e+06

Reading fields:
    volScalarFields: T

Executing functionObjects
Computing meanAndVariance on T
Time=6.24317e+06 Mean=0.890012 Var=0.017784
meanAndVariance written to "/data/pmxep5-8/PGSFlowTransport/tutorials/RESULTS/stopConcAdapTmstp/scat_5-lowContrast/TS1/processor0/../postProcessing/fieldMetrics/6.24317e+06"
Computing meanAndVariance of position wrt field T
Time=6.24317e+06 MeanConcX=0.952009 VarConcX=0.327387 MeanConcY=0.499936 VarConcY=0.082497 MeanConcZ=0.498861 VarConcZ=0.0822113
meanAndVarianceConc written to "/data/pmxep5-8/PGSFlowTransport/tutorials/RESULTS/stopConcAdapTmstp/scat_5-lowContrast/TS1/processor0/../postProcessing/fieldMetrics/6.24317e+06"

Time = 6.38237e+06

Reading fields:
    volScalarFields: T

Executing functionObjects
Computing meanAndVariance on T
Time=6.38237e+06 Mean=0.895003 Var=0.0167085
meanAndVariance written to "/data/pmxep5-8/PGSFlowTransport/tutorials/RESULTS/stopConcAdapTmstp/scat_5-lowContrast/TS1/processor0/../postProcessing/fieldMetrics/6.38237e+06"
Computing meanAndVariance of position wrt field T
Time=6.38237e+06 MeanConcX=0.954158 VarConcX=0.327676 MeanConcY=0.499919 VarConcY=0.0825149 MeanConcZ=0.498937 VarConcZ=0.0822466
meanAndVarianceConc written to "/data/pmxep5-8/PGSFlowTransport/tutorials/RESULTS/stopConcAdapTmstp/scat_5-lowContrast/TS1/processor0/../postProcessing/fieldMetrics/6.38237e+06"

Time = 6.52914e+06

Reading fields:
    volScalarFields: T

Executing functionObjects
Computing meanAndVariance on T
Time=6.52914e+06 Mean=0.90001 Var=0.0156423
meanAndVariance written to "/data/pmxep5-8/PGSFlowTransport/tutorials/RESULTS/stopConcAdapTmstp/scat_5-lowContrast/TS1/processor0/../postProcessing/fieldMetrics/6.52914e+06"
Computing meanAndVariance of position wrt field T
Time=6.52914e+06 MeanConcX=0.95631 VarConcX=0.327963 MeanConcY=0.499901 VarConcY=0.0825335 MeanConcZ=0.499011 VarConcZ=0.0822824
meanAndVarianceConc written to "/data/pmxep5-8/PGSFlowTransport/tutorials/RESULTS/stopConcAdapTmstp/scat_5-lowContrast/TS1/processor0/../postProcessing/fieldMetrics/6.52914e+06"

Time = 6.68345e+06

Reading fields:
    volScalarFields: T

Executing functionObjects
Computing meanAndVariance on T
Time=6.68345e+06 Mean=0.905008 Var=0.014592
meanAndVariance written to "/data/pmxep5-8/PGSFlowTransport/tutorials/RESULTS/stopConcAdapTmstp/scat_5-lowContrast/TS1/processor0/../postProcessing/fieldMetrics/6.68345e+06"
Computing meanAndVariance of position wrt field T
Time=6.68345e+06 MeanConcX=0.958453 VarConcX=0.328245 MeanConcY=0.499885 VarConcY=0.0825528 MeanConcZ=0.499083 VarConcZ=0.0823188
meanAndVarianceConc written to "/data/pmxep5-8/PGSFlowTransport/tutorials/RESULTS/stopConcAdapTmstp/scat_5-lowContrast/TS1/processor0/../postProcessing/fieldMetrics/6.68345e+06"

Time = 6.8464e+06

Reading fields:
    volScalarFields: T

Executing functionObjects
Computing meanAndVariance on T
Time=6.8464e+06 Mean=0.910005 Var=0.0135571
meanAndVariance written to "/data/pmxep5-8/PGSFlowTransport/tutorials/RESULTS/stopConcAdapTmstp/scat_5-lowContrast/TS1/processor0/../postProcessing/fieldMetrics/6.8464e+06"
Computing meanAndVariance of position wrt field T
Time=6.8464e+06 MeanConcX=0.960593 VarConcX=0.328523 MeanConcY=0.499869 VarConcY=0.0825726 MeanConcZ=0.499153 VarConcZ=0.0823557
meanAndVarianceConc written to "/data/pmxep5-8/PGSFlowTransport/tutorials/RESULTS/stopConcAdapTmstp/scat_5-lowContrast/TS1/processor0/../postProcessing/fieldMetrics/6.8464e+06"

Time = 7.01906e+06

Reading fields:
    volScalarFields: T

Executing functionObjects
Computing meanAndVariance on T
Time=7.01906e+06 Mean=0.915003 Var=0.0125383
meanAndVariance written to "/data/pmxep5-8/PGSFlowTransport/tutorials/RESULTS/stopConcAdapTmstp/scat_5-lowContrast/TS1/processor0/../postProcessing/fieldMetrics/7.01906e+06"
Computing meanAndVariance of position wrt field T
Time=7.01906e+06 MeanConcX=0.962731 VarConcX=0.328797 MeanConcY=0.499853 VarConcY=0.0825933 MeanConcZ=0.499221 VarConcZ=0.0823932
meanAndVarianceConc written to "/data/pmxep5-8/PGSFlowTransport/tutorials/RESULTS/stopConcAdapTmstp/scat_5-lowContrast/TS1/processor0/../postProcessing/fieldMetrics/7.01906e+06"

Time = 7.20288e+06

Reading fields:
    volScalarFields: T

Executing functionObjects
Computing meanAndVariance on T
Time=7.20288e+06 Mean=0.920008 Var=0.0115359
meanAndVariance written to "/data/pmxep5-8/PGSFlowTransport/tutorials/RESULTS/stopConcAdapTmstp/scat_5-lowContrast/TS1/processor0/../postProcessing/fieldMetrics/7.20288e+06"
Computing meanAndVariance of position wrt field T
Time=7.20288e+06 MeanConcX=0.96487 VarConcX=0.329069 MeanConcY=0.499839 VarConcY=0.0826147 MeanConcZ=0.499287 VarConcZ=0.0824314
meanAndVarianceConc written to "/data/pmxep5-8/PGSFlowTransport/tutorials/RESULTS/stopConcAdapTmstp/scat_5-lowContrast/TS1/processor0/../postProcessing/fieldMetrics/7.20288e+06"

Time = 7.39856e+06

Reading fields:
    volScalarFields: T

Executing functionObjects
Computing meanAndVariance on T
Time=7.39856e+06 Mean=0.925003 Var=0.0105548
meanAndVariance written to "/data/pmxep5-8/PGSFlowTransport/tutorials/RESULTS/stopConcAdapTmstp/scat_5-lowContrast/TS1/processor0/../postProcessing/fieldMetrics/7.39856e+06"
Computing meanAndVariance of position wrt field T
Time=7.39856e+06 MeanConcX=0.967003 VarConcX=0.329337 MeanConcY=0.499825 VarConcY=0.082637 MeanConcZ=0.499351 VarConcZ=0.0824703
meanAndVarianceConc written to "/data/pmxep5-8/PGSFlowTransport/tutorials/RESULTS/stopConcAdapTmstp/scat_5-lowContrast/TS1/processor0/../postProcessing/fieldMetrics/7.39856e+06"

Time = 7.60863e+06

Reading fields:
    volScalarFields: T

Executing functionObjects
Computing meanAndVariance on T
Time=7.60863e+06 Mean=0.930006 Var=0.00959267
meanAndVariance written to "/data/pmxep5-8/PGSFlowTransport/tutorials/RESULTS/stopConcAdapTmstp/scat_5-lowContrast/TS1/processor0/../postProcessing/fieldMetrics/7.60863e+06"
Computing meanAndVariance of position wrt field T
Time=7.60863e+06 MeanConcX=0.969138 VarConcX=0.329602 MeanConcY=0.499812 VarConcY=0.0826604 MeanConcZ=0.499412 VarConcZ=0.08251
meanAndVarianceConc written to "/data/pmxep5-8/PGSFlowTransport/tutorials/RESULTS/stopConcAdapTmstp/scat_5-lowContrast/TS1/processor0/../postProcessing/fieldMetrics/7.60863e+06"

Time = 7.83453e+06

Reading fields:
    volScalarFields: T

Executing functionObjects
Computing meanAndVariance on T
Time=7.83453e+06 Mean=0.935002 Var=0.00865437
meanAndVariance written to "/data/pmxep5-8/PGSFlowTransport/tutorials/RESULTS/stopConcAdapTmstp/scat_5-lowContrast/TS1/processor0/../postProcessing/fieldMetrics/7.83453e+06"
Computing meanAndVariance of position wrt field T
Time=7.83453e+06 MeanConcX=0.971271 VarConcX=0.329865 MeanConcY=0.499801 VarConcY=0.0826848 MeanConcZ=0.499471 VarConcZ=0.0825506
meanAndVarianceConc written to "/data/pmxep5-8/PGSFlowTransport/tutorials/RESULTS/stopConcAdapTmstp/scat_5-lowContrast/TS1/processor0/../postProcessing/fieldMetrics/7.83453e+06"

Time = 8.0795e+06

Reading fields:
    volScalarFields: T

Executing functionObjects
Computing meanAndVariance on T
Time=8.0795e+06 Mean=0.940005 Var=0.00773913
meanAndVariance written to "/data/pmxep5-8/PGSFlowTransport/tutorials/RESULTS/stopConcAdapTmstp/scat_5-lowContrast/TS1/processor0/../postProcessing/fieldMetrics/8.0795e+06"
Computing meanAndVariance of position wrt field T
Time=8.0795e+06 MeanConcX=0.973408 VarConcX=0.330125 MeanConcY=0.499791 VarConcY=0.0827105 MeanConcZ=0.499528 VarConcZ=0.0825921
meanAndVarianceConc written to "/data/pmxep5-8/PGSFlowTransport/tutorials/RESULTS/stopConcAdapTmstp/scat_5-lowContrast/TS1/processor0/../postProcessing/fieldMetrics/8.0795e+06"

Time = 8346402.877697

Reading fields:
    volScalarFields: T

Executing functionObjects
Computing meanAndVariance on T
Time=8346402.877697 Mean=0.945006 Var=0.00685079
meanAndVariance written to "/data/pmxep5-8/PGSFlowTransport/tutorials/RESULTS/stopConcAdapTmstp/scat_5-lowContrast/TS1/processor0/../postProcessing/fieldMetrics/8346402.877697"
Computing meanAndVariance of position wrt field T
Time=8346402.877697 MeanConcX=0.975546 VarConcX=0.330383 MeanConcY=0.499783 VarConcY=0.0827375 MeanConcZ=0.499582 VarConcZ=0.0826348
meanAndVarianceConc written to "/data/pmxep5-8/PGSFlowTransport/tutorials/RESULTS/stopConcAdapTmstp/scat_5-lowContrast/TS1/processor0/../postProcessing/fieldMetrics/8346402.877697"

Time = 8639568.34532334469

Reading fields:
    volScalarFields: T

Executing functionObjects
Computing meanAndVariance on T
Time=8639568.34532334469 Mean=0.950006 Var=0.00599143
meanAndVariance written to "/data/pmxep5-8/PGSFlowTransport/tutorials/RESULTS/stopConcAdapTmstp/scat_5-lowContrast/TS1/processor0/../postProcessing/fieldMetrics/8639568.34532334469"
Computing meanAndVariance of position wrt field T
Time=8639568.34532334469 MeanConcX=0.977686 VarConcX=0.33064 MeanConcY=0.499776 VarConcY=0.0827662 MeanConcZ=0.499633 VarConcZ=0.0826787
meanAndVarianceConc written to "/data/pmxep5-8/PGSFlowTransport/tutorials/RESULTS/stopConcAdapTmstp/scat_5-lowContrast/TS1/processor0/../postProcessing/fieldMetrics/8639568.34532334469"

Time = 8964388.48920903541

Reading fields:
    volScalarFields: T

Executing functionObjects
Computing meanAndVariance on T
Time=8964388.48920903541 Mean=0.955 Var=0.00516414
meanAndVariance written to "/data/pmxep5-8/PGSFlowTransport/tutorials/RESULTS/stopConcAdapTmstp/scat_5-lowContrast/TS1/processor0/../postProcessing/fieldMetrics/8964388.48920903541"
Computing meanAndVariance of position wrt field T
Time=8964388.48920903541 MeanConcX=0.979829 VarConcX=0.330895 MeanConcY=0.499772 VarConcY=0.0827966 MeanConcZ=0.499681 VarConcZ=0.082724
meanAndVarianceConc written to "/data/pmxep5-8/PGSFlowTransport/tutorials/RESULTS/stopConcAdapTmstp/scat_5-lowContrast/TS1/processor0/../postProcessing/fieldMetrics/8964388.48920903541"

Time = 9329136.69064878114

Reading fields:
    volScalarFields: T

Executing functionObjects
Computing meanAndVariance on T
Time=9329136.69064878114 Mean=0.96 Var=0.00437028
meanAndVariance written to "/data/pmxep5-8/PGSFlowTransport/tutorials/RESULTS/stopConcAdapTmstp/scat_5-lowContrast/TS1/processor0/../postProcessing/fieldMetrics/9329136.69064878114"
Computing meanAndVariance of position wrt field T
Time=9329136.69064878114 MeanConcX=0.98198 VarConcX=0.331149 MeanConcY=0.499771 VarConcY=0.0828291 MeanConcZ=0.499726 VarConcZ=0.082771
meanAndVarianceConc written to "/data/pmxep5-8/PGSFlowTransport/tutorials/RESULTS/stopConcAdapTmstp/scat_5-lowContrast/TS1/processor0/../postProcessing/fieldMetrics/9329136.69064878114"

Time = 9744244.60431886651

Reading fields:
    volScalarFields: T

Executing functionObjects
Computing meanAndVariance on T
Time=9744244.60431886651 Mean=0.965 Var=0.0036142
meanAndVariance written to "/data/pmxep5-8/PGSFlowTransport/tutorials/RESULTS/stopConcAdapTmstp/scat_5-lowContrast/TS1/processor0/../postProcessing/fieldMetrics/9744244.60431886651"
Computing meanAndVariance of position wrt field T
Time=9744244.60431886651 MeanConcX=0.98414 VarConcX=0.331403 MeanConcY=0.499772 VarConcY=0.0828642 MeanConcZ=0.499768 VarConcZ=0.08282
meanAndVarianceConc written to "/data/pmxep5-8/PGSFlowTransport/tutorials/RESULTS/stopConcAdapTmstp/scat_5-lowContrast/TS1/processor0/../postProcessing/fieldMetrics/9744244.60431886651"

Time = 10225539.5683488268

Reading fields:
    volScalarFields: T

Executing functionObjects
Computing meanAndVariance on T
Time=10225539.5683488268 Mean=0.970001 Var=0.00289994
meanAndVariance written to "/data/pmxep5-8/PGSFlowTransport/tutorials/RESULTS/stopConcAdapTmstp/scat_5-lowContrast/TS1/processor0/../postProcessing/fieldMetrics/10225539.5683488268"
Computing meanAndVariance of position wrt field T
Time=10225539.5683488268 MeanConcX=0.98631 VarConcX=0.331658 MeanConcY=0.499777 VarConcY=0.0829023 MeanConcZ=0.499806 VarConcZ=0.0828714
meanAndVarianceConc written to "/data/pmxep5-8/PGSFlowTransport/tutorials/RESULTS/stopConcAdapTmstp/scat_5-lowContrast/TS1/processor0/../postProcessing/fieldMetrics/10225539.5683488268"

Time = 10797482.0143933985

Reading fields:
    volScalarFields: T

Executing functionObjects
Computing meanAndVariance on T
Time=10797482.0143933985 Mean=0.975002 Var=0.0022327
meanAndVariance written to "/data/pmxep5-8/PGSFlowTransport/tutorials/RESULTS/stopConcAdapTmstp/scat_5-lowContrast/TS1/processor0/../postProcessing/fieldMetrics/10797482.0143933985"
Computing meanAndVariance of position wrt field T
Time=10797482.0143933985 MeanConcX=0.988495 VarConcX=0.331914 MeanConcY=0.499787 VarConcY=0.0829442 MeanConcZ=0.49984 VarConcZ=0.0829257
meanAndVarianceConc written to "/data/pmxep5-8/PGSFlowTransport/tutorials/RESULTS/stopConcAdapTmstp/scat_5-lowContrast/TS1/processor0/../postProcessing/fieldMetrics/10797482.0143933985"

Time = 11501079.1366972867

Reading fields:
    volScalarFields: T

Executing functionObjects
Computing meanAndVariance on T
Time=11501079.1366972867 Mean=0.980001 Var=0.00161921
meanAndVariance written to "/data/pmxep5-8/PGSFlowTransport/tutorials/RESULTS/stopConcAdapTmstp/scat_5-lowContrast/TS1/processor0/../postProcessing/fieldMetrics/11501079.1366972867"
Computing meanAndVariance of position wrt field T
Time=11501079.1366972867 MeanConcX=0.990697 VarConcX=0.332173 MeanConcY=0.499802 VarConcY=0.0829909 MeanConcZ=0.49987 VarConcZ=0.0829838
meanAndVarianceConc written to "/data/pmxep5-8/PGSFlowTransport/tutorials/RESULTS/stopConcAdapTmstp/scat_5-lowContrast/TS1/processor0/../postProcessing/fieldMetrics/11501079.1366972867"

Time = 12414028.7769873012

Reading fields:
    volScalarFields: T

Executing functionObjects
Computing meanAndVariance on T
Time=12414028.7769873012 Mean=0.985001 Var=0.001068
meanAndVariance written to "/data/pmxep5-8/PGSFlowTransport/tutorials/RESULTS/stopConcAdapTmstp/scat_5-lowContrast/TS1/processor0/../postProcessing/fieldMetrics/12414028.7769873012"
Computing meanAndVariance of position wrt field T
Time=12414028.7769873012 MeanConcX=0.992926 VarConcX=0.332437 MeanConcY=0.499825 VarConcY=0.0830441 MeanConcZ=0.499896 VarConcZ=0.0830469
meanAndVarianceConc written to "/data/pmxep5-8/PGSFlowTransport/tutorials/RESULTS/stopConcAdapTmstp/scat_5-lowContrast/TS1/processor0/../postProcessing/fieldMetrics/12414028.7769873012"

Time = 13711510.7913789805

Reading fields:
    volScalarFields: T

Executing functionObjects
Computing meanAndVariance on T
Time=13711510.7913789805 Mean=0.99 Var=0.000591948
meanAndVariance written to "/data/pmxep5-8/PGSFlowTransport/tutorials/RESULTS/stopConcAdapTmstp/scat_5-lowContrast/TS1/processor0/../postProcessing/fieldMetrics/13711510.7913789805"
Computing meanAndVariance of position wrt field T
Time=13711510.7913789805 MeanConcX=0.995191 VarConcX=0.332708 MeanConcY=0.499859 VarConcY=0.083107 MeanConcZ=0.499919 VarConcZ=0.0831173
meanAndVarianceConc written to "/data/pmxep5-8/PGSFlowTransport/tutorials/RESULTS/stopConcAdapTmstp/scat_5-lowContrast/TS1/processor0/../postProcessing/fieldMetrics/13711510.7913789805"

Time = 14600000.0000142585

Reading fields:
    volScalarFields: T

Executing functionObjects
Computing meanAndVariance on T
Time=14600000.0000142585 Mean=0.992409 Var=0.00039542
meanAndVariance written to "/data/pmxep5-8/PGSFlowTransport/tutorials/RESULTS/stopConcAdapTmstp/scat_5-lowContrast/TS1/processor0/../postProcessing/fieldMetrics/14600000.0000142585"
Computing meanAndVariance of position wrt field T
Time=14600000.0000142585 MeanConcX=0.996301 VarConcX=0.332844 MeanConcY=0.499881 VarConcY=0.0831425 MeanConcZ=0.499929 VarConcZ=0.0831551
meanAndVarianceConc written to "/data/pmxep5-8/PGSFlowTransport/tutorials/RESULTS/stopConcAdapTmstp/scat_5-lowContrast/TS1/processor0/../postProcessing/fieldMetrics/14600000.0000142585"

Time = 14647122.3021726478

Reading fields:
    volScalarFields: T

Executing functionObjects
Computing meanAndVariance on T
Time=14647122.3021726478 Mean=0.992519 Var=0.000387053
meanAndVariance written to "/data/pmxep5-8/PGSFlowTransport/tutorials/RESULTS/stopConcAdapTmstp/scat_5-lowContrast/TS1/processor0/../postProcessing/fieldMetrics/14647122.3021726478"
Computing meanAndVariance of position wrt field T
Time=14647122.3021726478 MeanConcX=0.996352 VarConcX=0.33285 MeanConcY=0.499882 VarConcY=0.0831442 MeanConcZ=0.49993 VarConcZ=0.0831569
meanAndVarianceConc written to "/data/pmxep5-8/PGSFlowTransport/tutorials/RESULTS/stopConcAdapTmstp/scat_5-lowContrast/TS1/processor0/../postProcessing/fieldMetrics/14647122.3021726478"

End

Finalising parallel run
