/*---------------------------------------------------------------------------*\
  =========                 |
  \\      /  F ield         | OpenFOAM: The Open Source CFD Toolbox
   \\    /   O peration     | Website:  https://openfoam.org
    \\  /    A nd           | Version:  8
     \\/     M anipulation  |
\*---------------------------------------------------------------------------*/
Build  : 8-1c9b5879390b
Exec   : blockMesh
Date   : Oct 21 2022
Time   : 16:11:06
Host   : "gercphd"
PID    : 22447
I/O    : uncollated
Case   : /data/pmxep5-8/PGSFlowTransport/tutorials/RESULTS/Herten/varMecDisp
nProcs : 1
sigFpe : Enabling floating point exception trapping (FOAM_SIGFPE).
fileModificationChecking : Monitoring run-time modified files using timeStampMaster (fileModificationSkew 10)
allowSystemOperations : Allowing user-supplied system call operations

// * * * * * * * * * * * * * * * * * * * * * * * * * * * * * * * * * * * * * //
Create time

Creating block mesh from
    "system/blockMeshDict"
Creating block edges
No non-planar block faces defined
Creating topology blocks
Creating topology patches

Creating block mesh topology

Check topology

	Basic statistics
		Number of internal faces : 0
		Number of boundary faces : 6
		Number of defined boundary faces : 6
		Number of undefined boundary faces : 0
	Checking patch -> block consistency

Creating block offsets
Creating merge list .

Creating polyMesh from blockMesh
Creating patches
Creating cells
Creating points with scale 1
    Block 0 cell size :
        i : 0.05 .. 0.05
        j : 0.05 .. 0.05
        k : 0.05 .. 0.05

Writing polyMesh
----------------
Mesh Information
----------------
  boundingBox: (0 0 0) (16 10 7)
  nPoints: 9097461
  nCells: 8960000
  nFaces: 27016800
  nInternalFaces: 26743200
----------------
Patches
----------------
  patch 0 (start: 26743200 size: 28000) name: inlet
  patch 1 (start: 26771200 size: 28000) name: outlet
  patch 2 (start: 26799200 size: 64000) name: lowerWall
  patch 3 (start: 26863200 size: 64000) name: upperWall
  patch 4 (start: 26927200 size: 89600) name: frontAndBack

End

/*---------------------------------------------------------------------------*\
  =========                 |
  \\      /  F ield         | OpenFOAM: The Open Source CFD Toolbox
   \\    /   O peration     | Website:  https://openfoam.org
    \\  /    A nd           | Version:  8
     \\/     M anipulation  |
\*---------------------------------------------------------------------------*/
Build  : 8-1c9b5879390b
Exec   : decomposePar
Date   : Oct 21 2022
Time   : 16:11:55
Host   : "gercphd"
PID    : 22474
I/O    : uncollated
Case   : /data/pmxep5-8/PGSFlowTransport/tutorials/RESULTS/Herten/varMecDisp
nProcs : 1
sigFpe : Enabling floating point exception trapping (FOAM_SIGFPE).
fileModificationChecking : Monitoring run-time modified files using timeStampMaster (fileModificationSkew 10)
allowSystemOperations : Allowing user-supplied system call operations

// * * * * * * * * * * * * * * * * * * * * * * * * * * * * * * * * * * * * * //
Create time



Decomposing mesh region0

Create mesh

Calculating distribution of cells
Selecting decompositionMethod simple

Finished decomposition in 6.71 s

Calculating original mesh data

Distributing cells to processors

Distributing faces to processors

Distributing points to processors

Constructing processor meshes

Processor 0
    Number of cells = 746789
    Number of faces shared with processor 1 = 7132
    Number of faces shared with processor 3 = 7490
    Number of faces shared with processor 6 = 10633
    Number of faces shared with processor 7 = 1
    Number of processor patches = 4
    Number of processor faces = 25256
    Number of boundary faces = 25124

Processor 1
    Number of cells = 744895
    Number of faces shared with processor 0 = 7132
    Number of faces shared with processor 2 = 7073
    Number of faces shared with processor 4 = 7456
    Number of faces shared with processor 7 = 10666
    Number of processor patches = 4
    Number of processor faces = 32327
    Number of boundary faces = 18123

Processor 2
    Number of cells = 748316
    Number of faces shared with processor 1 = 7073
    Number of faces shared with processor 4 = 1
    Number of faces shared with processor 5 = 7453
    Number of faces shared with processor 8 = 10700
    Number of processor patches = 4
    Number of processor faces = 25227
    Number of boundary faces = 25153

Processor 3
    Number of cells = 749000
    Number of faces shared with processor 0 = 7490
    Number of faces shared with processor 4 = 7000
    Number of faces shared with processor 9 = 10700
    Number of processor patches = 3
    Number of processor faces = 25190
    Number of boundary faces = 25190

Processor 4
    Number of cells = 748439
    Number of faces shared with processor 1 = 7456
    Number of faces shared with processor 2 = 1
    Number of faces shared with processor 3 = 7000
    Number of faces shared with processor 5 = 7066
    Number of faces shared with processor 10 = 10666
    Number of faces shared with processor 11 = 1
    Number of processor patches = 6
    Number of processor faces = 32190
    Number of boundary faces = 18190

Processor 5
    Number of cells = 742561
    Number of faces shared with processor 2 = 7453
    Number of faces shared with processor 4 = 7066
    Number of faces shared with processor 11 = 10633
    Number of processor patches = 3
    Number of processor faces = 25152
    Number of boundary faces = 25020

Processor 6
    Number of cells = 742561
    Number of faces shared with processor 0 = 10633
    Number of faces shared with processor 7 = 7066
    Number of faces shared with processor 9 = 7453
    Number of processor patches = 3
    Number of processor faces = 25152
    Number of boundary faces = 25020

Processor 7
    Number of cells = 748439
    Number of faces shared with processor 0 = 1
    Number of faces shared with processor 1 = 10666
    Number of faces shared with processor 6 = 7066
    Number of faces shared with processor 8 = 7000
    Number of faces shared with processor 9 = 1
    Number of faces shared with processor 10 = 7456
    Number of processor patches = 6
    Number of processor faces = 32190
    Number of boundary faces = 18190

Processor 8
    Number of cells = 749000
    Number of faces shared with processor 2 = 10700
    Number of faces shared with processor 7 = 7000
    Number of faces shared with processor 11 = 7490
    Number of processor patches = 3
    Number of processor faces = 25190
    Number of boundary faces = 25190

Processor 9
    Number of cells = 748317
    Number of faces shared with processor 3 = 10700
    Number of faces shared with processor 6 = 7453
    Number of faces shared with processor 7 = 1
    Number of faces shared with processor 10 = 7073
    Number of processor patches = 4
    Number of processor faces = 25227
    Number of boundary faces = 25153

Processor 10
    Number of cells = 744894
    Number of faces shared with processor 4 = 10666
    Number of faces shared with processor 7 = 7456
    Number of faces shared with processor 9 = 7073
    Number of faces shared with processor 11 = 7132
    Number of processor patches = 4
    Number of processor faces = 32327
    Number of boundary faces = 18123

Processor 11
    Number of cells = 746789
    Number of faces shared with processor 4 = 1
    Number of faces shared with processor 5 = 10633
    Number of faces shared with processor 8 = 7490
    Number of faces shared with processor 10 = 7132
    Number of processor patches = 4
    Number of processor faces = 25256
    Number of boundary faces = 25124

Number of processor faces = 165342
Max number of cells = 749000 (0.3125% above average 746667)
Max number of processor patches = 6 (50% above average 4)
Max number of faces between processors = 32327 (17.3096% above average 27557)

Time = 0

Processor 0: field transfer
Processor 1: field transfer
Processor 2: field transfer
Processor 3: field transfer
Processor 4: field transfer
Processor 5: field transfer
Processor 6: field transfer
Processor 7: field transfer
Processor 8: field transfer
Processor 9: field transfer
Processor 10: field transfer
Processor 11: field transfer

End

/*---------------------------------------------------------------------------*\
  =========                 |
  \\      /  F ield         | OpenFOAM: The Open Source CFD Toolbox
   \\    /   O peration     | Website:  https://openfoam.org
    \\  /    A nd           | Version:  8
     \\/     M anipulation  |
\*---------------------------------------------------------------------------*/
Build  : 8-1c9b5879390b
Exec   : simpleDarcyFoam -parallel
Date   : Oct 21 2022
Time   : 16:14:08
Host   : "gercphd"
PID    : 22587
I/O    : uncollated
Case   : /data/pmxep5-8/PGSFlowTransport/tutorials/RESULTS/Herten/varMecDisp
nProcs : 12
Slaves : 
11
(
"gercphd.22588"
"gercphd.22589"
"gercphd.22590"
"gercphd.22591"
"gercphd.22592"
"gercphd.22593"
"gercphd.22594"
"gercphd.22595"
"gercphd.22596"
"gercphd.22597"
"gercphd.22598"
)

Pstream initialized with:
    floatTransfer      : 0
    nProcsSimpleSum    : 0
    commsType          : nonBlocking
    polling iterations : 0
sigFpe : Enabling floating point exception trapping (FOAM_SIGFPE).
fileModificationChecking : Monitoring run-time modified files using timeStampMaster (fileModificationSkew 10)
allowSystemOperations : Allowing user-supplied system call operations

// * * * * * * * * * * * * * * * * * * * * * * * * * * * * * * * * * * * * * //
Create time

Create mesh for time = 0


SIMPLE: Convergence criteria found
        p: tolerance 1e-10
        c: tolerance 1e-10


Reading g

Reading field p

Reading transportProperties

Reading field K

Reading/calculating face flux field phi

No finite volume options present

Starting time loop

Time = 100

DICPBiCGStab:  Solving for p, Initial residual = 1, Final residual = 9.59613e-07, No Iterations 459
Mean velocity  = (0.000273317 1.47892e-07 1.13271e-06)

ExecutionTime = 54.68 s  ClockTime = 55 s

Time = 200

DICPBiCGStab:  Solving for p, Initial residual = 5.08747e-07, Final residual = 1.63236e-13, No Iterations 640
Mean velocity  = (0.000273324 1.5024e-07 1.13147e-06)

ExecutionTime = 123.6 s  ClockTime = 123 s

Time = 300

DICPBiCGStab:  Solving for p, Initial residual = 3.15065e-13, Final residual = 9.96994e-16, No Iterations 182
Mean velocity  = (0.000273324 1.5024e-07 1.13147e-06)

ExecutionTime = 143.82 s  ClockTime = 144 s


SIMPLE solution converged in 300 iterations

End

Finalising parallel run
/*---------------------------------------------------------------------------*\
  =========                 |
  \\      /  F ield         | OpenFOAM: The Open Source CFD Toolbox
   \\    /   O peration     | Website:  https://openfoam.org
    \\  /    A nd           | Version:  8
     \\/     M anipulation  |
\*---------------------------------------------------------------------------*/
Build  : 8-1c9b5879390b
Exec   : macroScalarTransport -parallel
Date   : Oct 21 2022
Time   : 16:17:23
Host   : "gercphd"
PID    : 22863
I/O    : uncollated
Case   : /data/pmxep5-8/PGSFlowTransport/tutorials/RESULTS/Herten/varMecDisp
nProcs : 12
Slaves : 
11
(
"gercphd.22864"
"gercphd.22865"
"gercphd.22866"
"gercphd.22867"
"gercphd.22868"
"gercphd.22869"
"gercphd.22870"
"gercphd.22871"
"gercphd.22872"
"gercphd.22873"
"gercphd.22874"
)

Pstream initialized with:
    floatTransfer      : 0
    nProcsSimpleSum    : 0
    commsType          : nonBlocking
    polling iterations : 0
sigFpe : Enabling floating point exception trapping (FOAM_SIGFPE).
fileModificationChecking : Monitoring run-time modified files using timeStampMaster (fileModificationSkew 10)
allowSystemOperations : Allowing user-supplied system call operations

// * * * * * * * * * * * * * * * * * * * * * * * * * * * * * * * * * * * * * //
Create time

Create mesh for time = 0


SIMPLE: Convergence criteria found
        p: tolerance 1e-10
        c: tolerance 1e-10

Reading field c

Reading field U

Reading transportProperties

Reading diffusivity Dm

Reading outlet name

Reading porosity phi

Reading mechanical disp coeff alpha

Reading controlDict

Reading/calculating face flux field q

No finite volume options present

Calculating scalar transport

Courant Number mean: 0.583838 max: 8.06066
Mean vel = (0.000273324 1.5024e-07 1.13147e-06)

Adaptive time = 9.92457
DILUPBiCGStab:  Solving for c, Initial residual = 1, Final residual = 3.34177e-11, No Iterations 3
Total mass = 0.638767
Flux out = 1.34656e-177
Adaptive time = 19.8491
DILUPBiCGStab:  Solving for c, Initial residual = 0.201612, Final residual = 2.48994e-11, No Iterations 2
Total mass = 1.27657
Flux out = 5.40811e-177
Adaptive time = 29.7737
DILUPBiCGStab:  Solving for c, Initial residual = 0.112072, Final residual = 1.6904e-11, No Iterations 2
Total mass = 1.91332
Flux out = 2.03727e-176
Adaptive time = 39.6983
DILUPBiCGStab:  Solving for c, Initial residual = 0.0776312, Final residual = 1.41816e-11, No Iterations 2
Total mass = 2.54919
Flux out = 7.642e-176
Adaptive time = 49.6229
DILUPBiCGStab:  Solving for c, Initial residual = 0.0594078, Final residual = 1.13396e-11, No Iterations 2
Total mass = 3.18438
Flux out = 2.86602e-175
Adaptive time = 59.5474
DILUPBiCGStab:  Solving for c, Initial residual = 0.0481342, Final residual = 8.7414e-12, No Iterations 2
Total mass = 3.81906
Flux out = 1.07493e-174
Adaptive time = 69.472
DILUPBiCGStab:  Solving for c, Initial residual = 0.0404723, Final residual = 6.47284e-12, No Iterations 2
Total mass = 4.45337
Flux out = 4.03198e-174
Adaptive time = 79.3966
DILUPBiCGStab:  Solving for c, Initial residual = 0.0349273, Final residual = 4.67525e-12, No Iterations 2
Total mass = 5.0874
Flux out = 1.51247e-173
Adaptive time = 89.3212
DILUPBiCGStab:  Solving for c, Initial residual = 0.0307262, Final residual = 3.92384e-12, No Iterations 2
Total mass = 5.72122
Flux out = 5.67388e-173
Adaptive time = 99.2457
DILUPBiCGStab:  Solving for c, Initial residual = 0.0274344, Final residual = 3.61179e-12, No Iterations 2
Total mass = 6.35488
Flux out = 2.12858e-172
Adaptive time = 109.17
DILUPBiCGStab:  Solving for c, Initial residual = 0.0247843, Final residual = 3.24103e-12, No Iterations 2
Total mass = 6.98842
Flux out = 7.98553e-172
Adaptive time = 119.095
DILUPBiCGStab:  Solving for c, Initial residual = 0.0226054, Final residual = 2.80057e-12, No Iterations 2
Total mass = 7.62187
Flux out = 2.99578e-171
Adaptive time = 129.019
DILUPBiCGStab:  Solving for c, Initial residual = 0.0207815, Final residual = 2.34665e-12, No Iterations 2
Total mass = 8.25525
Flux out = 1.12383e-170
Adaptive time = 138.944
DILUPBiCGStab:  Solving for c, Initial residual = 0.0192327, Final residual = 1.93974e-12, No Iterations 2
Total mass = 8.88857
Flux out = 4.21569e-170
Adaptive time = 148.869
DILUPBiCGStab:  Solving for c, Initial residual = 0.0179009, Final residual = 1.62005e-12, No Iterations 2
Total mass = 9.52184
Flux out = 1.5813e-169
Adaptive time = 158.793
DILUPBiCGStab:  Solving for c, Initial residual = 0.0167437, Final residual = 1.4009e-12, No Iterations 2
Total mass = 10.1551
Flux out = 5.93118e-169
Adaptive time = 168.718
DILUPBiCGStab:  Solving for c, Initial residual = 0.0157286, Final residual = 1.29159e-12, No Iterations 2
Total mass = 10.7883
Flux out = 2.22459e-168
Adaptive time = 178.642
DILUPBiCGStab:  Solving for c, Initial residual = 0.0148308, Final residual = 1.21632e-12, No Iterations 2
Total mass = 11.4214
Flux out = 8.34357e-168
Adaptive time = 188.567
DILUPBiCGStab:  Solving for c, Initial residual = 0.0140314, Final residual = 1.14615e-12, No Iterations 2
Total mass = 12.0546
Flux out = 3.12933e-167
Adaptive time = 198.491
DILUPBiCGStab:  Solving for c, Initial residual = 0.0133148, Final residual = 1.07528e-12, No Iterations 2
Total mass = 12.6877
Flux out = 1.1737e-166
Adaptive time = 208.416
DILUPBiCGStab:  Solving for c, Initial residual = 0.0126688, Final residual = 1.00503e-12, No Iterations 2
Total mass = 13.3208
Flux out = 4.40234e-166
Adaptive time = 218.341
DILUPBiCGStab:  Solving for c, Initial residual = 0.0120835, Final residual = 9.3777e-13, No Iterations 2
Total mass = 13.9539
Flux out = 1.65137e-165
Adaptive time = 228.265
DILUPBiCGStab:  Solving for c, Initial residual = 0.0115508, Final residual = 8.76097e-13, No Iterations 2
Total mass = 14.587
Flux out = 6.19526e-165
Adaptive time = 238.19
DILUPBiCGStab:  Solving for c, Initial residual = 0.0110638, Final residual = 8.20855e-13, No Iterations 2
Total mass = 15.2201
Flux out = 2.32465e-164
Adaptive time = 248.114
DILUPBiCGStab:  Solving for c, Initial residual = 0.0106168, Final residual = 7.72632e-13, No Iterations 2
Total mass = 15.8531
Flux out = 8.72512e-164
Adaptive time = 258.039
DILUPBiCGStab:  Solving for c, Initial residual = 0.010205, Final residual = 7.32329e-13, No Iterations 2
Total mass = 16.4862
Flux out = 3.27596e-163
Adaptive time = 267.963
DILUPBiCGStab:  Solving for c, Initial residual = 0.00982469, Final residual = 6.98895e-13, No Iterations 2
Total mass = 17.1192
Flux out = 1.23055e-162
Adaptive time = 277.888
DILUPBiCGStab:  Solving for c, Initial residual = 0.00947217, Final residual = 6.70186e-13, No Iterations 2
Total mass = 17.7523
Flux out = 4.62476e-162
Adaptive time = 287.813
DILUPBiCGStab:  Solving for c, Initial residual = 0.00914452, Final residual = 6.45477e-13, No Iterations 2
Total mass = 18.3853
Flux out = 1.73917e-161
Adaptive time = 297.737
DILUPBiCGStab:  Solving for c, Initial residual = 0.00883924, Final residual = 6.23331e-13, No Iterations 2
Total mass = 19.0183
Flux out = 6.54446e-161
Adaptive time = 307.662
DILUPBiCGStab:  Solving for c, Initial residual = 0.00855403, Final residual = 6.03788e-13, No Iterations 2
Total mass = 19.6514
Flux out = 2.46427e-160
Adaptive time = 317.586
DILUPBiCGStab:  Solving for c, Initial residual = 0.00828711, Final residual = 5.85927e-13, No Iterations 2
Total mass = 20.2844
Flux out = 9.28471e-160
Adaptive time = 327.511
DILUPBiCGStab:  Solving for c, Initial residual = 0.00803671, Final residual = 5.68944e-13, No Iterations 2
Total mass = 20.9174
Flux out = 3.50008e-159
Adaptive time = 337.435
DILUPBiCGStab:  Solving for c, Initial residual = 0.0078013, Final residual = 5.52117e-13, No Iterations 2
Total mass = 21.5504
Flux out = 1.31997e-158
Adaptive time = 347.36
DILUPBiCGStab:  Solving for c, Initial residual = 0.00757965, Final residual = 5.35261e-13, No Iterations 2
Total mass = 22.1834
Flux out = 4.97913e-158
Adaptive time = 357.285
DILUPBiCGStab:  Solving for c, Initial residual = 0.00737051, Final residual = 5.18528e-13, No Iterations 2
Total mass = 22.8164
Flux out = 1.87833e-157
Adaptive time = 367.209
DILUPBiCGStab:  Solving for c, Initial residual = 0.00717284, Final residual = 5.01694e-13, No Iterations 2
Total mass = 23.4494
Flux out = 7.085e-157
Adaptive time = 377.134
DILUPBiCGStab:  Solving for c, Initial residual = 0.00698583, Final residual = 4.85197e-13, No Iterations 2
Total mass = 24.0824
Flux out = 2.67164e-156
Adaptive time = 387.058
DILUPBiCGStab:  Solving for c, Initial residual = 0.00680855, Final residual = 4.69145e-13, No Iterations 2
Total mass = 24.7154
Flux out = 1.00697e-155
Adaptive time = 396.983
DILUPBiCGStab:  Solving for c, Initial residual = 0.00664026, Final residual = 4.53916e-13, No Iterations 2
Total mass = 25.3484
Flux out = 3.79314e-155
Adaptive time = 406.908
DILUPBiCGStab:  Solving for c, Initial residual = 0.00648038, Final residual = 4.41961e-13, No Iterations 2
Total mass = 25.9814
Flux out = 1.42785e-154
Adaptive time = 416.832
DILUPBiCGStab:  Solving for c, Initial residual = 0.00632821, Final residual = 4.35852e-13, No Iterations 2
Total mass = 26.6144
Flux out = 5.37088e-154
Adaptive time = 426.757
DILUPBiCGStab:  Solving for c, Initial residual = 0.00618319, Final residual = 4.35634e-13, No Iterations 2
Total mass = 27.2474
Flux out = 2.0187e-153
Adaptive time = 436.681
DILUPBiCGStab:  Solving for c, Initial residual = 0.00604493, Final residual = 4.39422e-13, No Iterations 2
Total mass = 27.8803
Flux out = 7.58172e-153
Adaptive time = 446.606
DILUPBiCGStab:  Solving for c, Initial residual = 0.0059129, Final residual = 4.45709e-13, No Iterations 2
Total mass = 28.5133
Flux out = 2.84542e-152
Adaptive time = 456.53
DILUPBiCGStab:  Solving for c, Initial residual = 0.00578665, Final residual = 4.54181e-13, No Iterations 2
Total mass = 29.1463
Flux out = 1.06716e-151
Adaptive time = 466.455
DILUPBiCGStab:  Solving for c, Initial residual = 0.0056659, Final residual = 4.64546e-13, No Iterations 2
Total mass = 29.7793
Flux out = 3.99993e-151
Adaptive time = 476.38
DILUPBiCGStab:  Solving for c, Initial residual = 0.00555023, Final residual = 9.97626e-11, No Iterations 2
Total mass = 30.4123
Flux out = 1.49845e-150
Adaptive time = 486.304
DILUPBiCGStab:  Solving for c, Initial residual = 0.00543931, Final residual = 9.81567e-11, No Iterations 2
Total mass = 31.0453
Flux out = 5.61088e-150
Adaptive time = 496.229
DILUPBiCGStab:  Solving for c, Initial residual = 0.00533294, Final residual = 9.67602e-11, No Iterations 2
Total mass = 31.6782
Flux out = 2.10017e-149
Adaptive time = 506.153
DILUPBiCGStab:  Solving for c, Initial residual = 0.00523077, Final residual = 9.55371e-11, No Iterations 2
Total mass = 32.3112
Flux out = 7.8586e-149
Adaptive time = 516.078
DILUPBiCGStab:  Solving for c, Initial residual = 0.00513255, Final residual = 9.44747e-11, No Iterations 2
Total mass = 32.9442
Flux out = 2.93987e-148
Adaptive time = 526.002
DILUPBiCGStab:  Solving for c, Initial residual = 0.00503814, Final residual = 9.3539e-11, No Iterations 2
Total mass = 33.5772
Flux out = 1.09958e-147
Adaptive time = 535.927
DILUPBiCGStab:  Solving for c, Initial residual = 0.00494726, Final residual = 9.27009e-11, No Iterations 2
Total mass = 34.2101
Flux out = 4.11214e-147
Adaptive time = 545.852
DILUPBiCGStab:  Solving for c, Initial residual = 0.00485969, Final residual = 9.19552e-11, No Iterations 2
Total mass = 34.8431
Flux out = 1.53768e-146
Adaptive time = 555.776
DILUPBiCGStab:  Solving for c, Initial residual = 0.00477532, Final residual = 9.12804e-11, No Iterations 2
Total mass = 35.4761
Flux out = 5.74954e-146
Adaptive time = 565.701
DILUPBiCGStab:  Solving for c, Initial residual = 0.00469394, Final residual = 9.066e-11, No Iterations 2
Total mass = 36.1091
Flux out = 2.14974e-145
Adaptive time = 575.625
DILUPBiCGStab:  Solving for c, Initial residual = 0.00461537, Final residual = 9.00889e-11, No Iterations 2
Total mass = 36.742
Flux out = 8.03771e-145
Adaptive time = 585.55
DILUPBiCGStab:  Solving for c, Initial residual = 0.00453952, Final residual = 8.95621e-11, No Iterations 2
Total mass = 37.375
Flux out = 3.00525e-144
Adaptive time = 595.474
DILUPBiCGStab:  Solving for c, Initial residual = 0.00446623, Final residual = 8.90736e-11, No Iterations 2
Total mass = 38.008
Flux out = 1.12366e-143
Adaptive time = 605.399
DILUPBiCGStab:  Solving for c, Initial residual = 0.00439534, Final residual = 8.86205e-11, No Iterations 2
Total mass = 38.6409
Flux out = 4.20148e-143
Adaptive time = 615.324
DILUPBiCGStab:  Solving for c, Initial residual = 0.00432678, Final residual = 8.81995e-11, No Iterations 2
Total mass = 39.2739
Flux out = 1.57102e-142
Adaptive time = 625.248
DILUPBiCGStab:  Solving for c, Initial residual = 0.00426044, Final residual = 8.7817e-11, No Iterations 2
Total mass = 39.9069
Flux out = 5.87458e-142
Adaptive time = 635.173
DILUPBiCGStab:  Solving for c, Initial residual = 0.00419617, Final residual = 8.74699e-11, No Iterations 2
Total mass = 40.5398
Flux out = 2.19678e-141
Adaptive time = 645.097
DILUPBiCGStab:  Solving for c, Initial residual = 0.00413391, Final residual = 8.71628e-11, No Iterations 2
Total mass = 41.1728
Flux out = 8.21502e-141
Adaptive time = 655.022
DILUPBiCGStab:  Solving for c, Initial residual = 0.00407356, Final residual = 8.6899e-11, No Iterations 2
Total mass = 41.8058
Flux out = 3.07214e-140
Adaptive time = 664.946
DILUPBiCGStab:  Solving for c, Initial residual = 0.00401501, Final residual = 8.66809e-11, No Iterations 2
Total mass = 42.4387
Flux out = 1.14889e-139
Adaptive time = 674.871
DILUPBiCGStab:  Solving for c, Initial residual = 0.00395822, Final residual = 8.6514e-11, No Iterations 2
Total mass = 43.0717
Flux out = 4.29653e-139
Adaptive time = 684.796
DILUPBiCGStab:  Solving for c, Initial residual = 0.00390311, Final residual = 8.64054e-11, No Iterations 2
Total mass = 43.7047
Flux out = 1.60676e-138
Adaptive time = 694.72
DILUPBiCGStab:  Solving for c, Initial residual = 0.00384956, Final residual = 8.63621e-11, No Iterations 2
Total mass = 44.3376
Flux out = 6.0086e-138
Adaptive time = 704.645
DILUPBiCGStab:  Solving for c, Initial residual = 0.00379753, Final residual = 8.63835e-11, No Iterations 2
Total mass = 44.9706
Flux out = 2.24685e-137
Adaptive time = 714.569
DILUPBiCGStab:  Solving for c, Initial residual = 0.00374698, Final residual = 8.64703e-11, No Iterations 2
Total mass = 45.6035
Flux out = 8.4013e-137
Adaptive time = 724.494
DILUPBiCGStab:  Solving for c, Initial residual = 0.00369781, Final residual = 8.66168e-11, No Iterations 2
Total mass = 46.2365
Flux out = 3.14108e-136
Adaptive time = 734.418
DILUPBiCGStab:  Solving for c, Initial residual = 0.00364999, Final residual = 8.68199e-11, No Iterations 2
Total mass = 46.8695
Flux out = 1.17425e-135
Adaptive time = 744.343
DILUPBiCGStab:  Solving for c, Initial residual = 0.00360347, Final residual = 8.70747e-11, No Iterations 2
Total mass = 47.5024
Flux out = 4.38913e-135
Adaptive time = 754.268
DILUPBiCGStab:  Solving for c, Initial residual = 0.00355817, Final residual = 8.73744e-11, No Iterations 2
Total mass = 48.1354
Flux out = 1.64029e-134
Adaptive time = 764.192
DILUPBiCGStab:  Solving for c, Initial residual = 0.00351405, Final residual = 8.77099e-11, No Iterations 2
Total mass = 48.7684
Flux out = 6.12871e-134
Adaptive time = 774.117
DILUPBiCGStab:  Solving for c, Initial residual = 0.00347109, Final residual = 8.8075e-11, No Iterations 2
Total mass = 49.4013
Flux out = 2.28933e-133
Adaptive time = 784.041
DILUPBiCGStab:  Solving for c, Initial residual = 0.00342922, Final residual = 8.84679e-11, No Iterations 2
Total mass = 50.0343
Flux out = 8.54901e-133
Adaptive time = 793.966
DILUPBiCGStab:  Solving for c, Initial residual = 0.0033884, Final residual = 8.88755e-11, No Iterations 2
Total mass = 50.6672
Flux out = 3.19131e-132
Adaptive time = 803.89
DILUPBiCGStab:  Solving for c, Initial residual = 0.00334861, Final residual = 8.92786e-11, No Iterations 2
Total mass = 51.3002
Flux out = 1.19081e-131
Adaptive time = 813.815
DILUPBiCGStab:  Solving for c, Initial residual = 0.00330979, Final residual = 8.96683e-11, No Iterations 2
Total mass = 51.9332
Flux out = 4.4412e-131
Adaptive time = 823.74
DILUPBiCGStab:  Solving for c, Initial residual = 0.00327191, Final residual = 9.00304e-11, No Iterations 2
Total mass = 52.5661
Flux out = 1.65543e-130
Adaptive time = 833.664
DILUPBiCGStab:  Solving for c, Initial residual = 0.00323494, Final residual = 9.03545e-11, No Iterations 2
Total mass = 53.1991
Flux out = 6.16638e-130
Adaptive time = 843.589
DILUPBiCGStab:  Solving for c, Initial residual = 0.00319886, Final residual = 9.06295e-11, No Iterations 2
Total mass = 53.832
Flux out = 2.29516e-129
Adaptive time = 853.513
DILUPBiCGStab:  Solving for c, Initial residual = 0.00316361, Final residual = 9.08446e-11, No Iterations 2
Total mass = 54.465
Flux out = 8.53507e-129
Adaptive time = 863.438
DILUPBiCGStab:  Solving for c, Initial residual = 0.00312919, Final residual = 9.09965e-11, No Iterations 2
Total mass = 55.098
Flux out = 3.17069e-128
Adaptive time = 873.362
DILUPBiCGStab:  Solving for c, Initial residual = 0.00309556, Final residual = 9.10738e-11, No Iterations 2
Total mass = 55.7309
Flux out = 1.1765e-127
Adaptive time = 883.287
DILUPBiCGStab:  Solving for c, Initial residual = 0.00306269, Final residual = 9.107e-11, No Iterations 2
Total mass = 56.3639
Flux out = 4.35963e-127
Adaptive time = 893.212
DILUPBiCGStab:  Solving for c, Initial residual = 0.00303055, Final residual = 9.09796e-11, No Iterations 2
Total mass = 56.9968
Flux out = 1.61308e-126
Adaptive time = 903.136
DILUPBiCGStab:  Solving for c, Initial residual = 0.00299913, Final residual = 9.07946e-11, No Iterations 2
Total mass = 57.6298
Flux out = 5.95845e-126
Adaptive time = 913.061
DILUPBiCGStab:  Solving for c, Initial residual = 0.0029684, Final residual = 9.05103e-11, No Iterations 2
Total mass = 58.2627
Flux out = 2.19684e-125
Adaptive time = 922.985
DILUPBiCGStab:  Solving for c, Initial residual = 0.00293833, Final residual = 9.01225e-11, No Iterations 2
Total mass = 58.8957
Flux out = 8.08291e-125
Adaptive time = 932.91
DILUPBiCGStab:  Solving for c, Initial residual = 0.00290891, Final residual = 8.96256e-11, No Iterations 2
Total mass = 59.5287
Flux out = 2.96725e-124
Adaptive time = 942.834
DILUPBiCGStab:  Solving for c, Initial residual = 0.00288012, Final residual = 8.90204e-11, No Iterations 2
Total mass = 60.1616
Flux out = 1.0866e-123
Adaptive time = 952.759
DILUPBiCGStab:  Solving for c, Initial residual = 0.00285193, Final residual = 8.83092e-11, No Iterations 2
Total mass = 60.7946
Flux out = 3.96853e-123
Adaptive time = 962.684
DILUPBiCGStab:  Solving for c, Initial residual = 0.00282432, Final residual = 8.74942e-11, No Iterations 2
Total mass = 61.4275
Flux out = 1.44525e-122
Adaptive time = 972.608
DILUPBiCGStab:  Solving for c, Initial residual = 0.00279729, Final residual = 8.6578e-11, No Iterations 2
Total mass = 62.0605
Flux out = 5.24711e-122
Adaptive time = 982.533
DILUPBiCGStab:  Solving for c, Initial residual = 0.00277081, Final residual = 8.55674e-11, No Iterations 2
Total mass = 62.6934
Flux out = 1.89881e-121
Adaptive time = 992.457
DILUPBiCGStab:  Solving for c, Initial residual = 0.00274485, Final residual = 8.44679e-11, No Iterations 2
Total mass = 63.3264
Flux out = 6.84763e-121
Adaptive time = 1002.38
DILUPBiCGStab:  Solving for c, Initial residual = 0.00271943, Final residual = 8.3287e-11, No Iterations 2
Total mass = 63.9594
Flux out = 2.46048e-120
Adaptive time = 1012.31
DILUPBiCGStab:  Solving for c, Initial residual = 0.0026945, Final residual = 8.20323e-11, No Iterations 2
Total mass = 64.5923
Flux out = 8.80727e-120
Adaptive time = 1022.23
DILUPBiCGStab:  Solving for c, Initial residual = 0.00267006, Final residual = 8.07119e-11, No Iterations 2
Total mass = 65.2253
Flux out = 3.14003e-119
Adaptive time = 1032.16
DILUPBiCGStab:  Solving for c, Initial residual = 0.00264609, Final residual = 7.93365e-11, No Iterations 2
Total mass = 65.8582
Flux out = 1.11488e-118
Adaptive time = 1042.08
DILUPBiCGStab:  Solving for c, Initial residual = 0.00262259, Final residual = 7.79143e-11, No Iterations 2
Total mass = 66.4912
Flux out = 3.9415e-118
Adaptive time = 1052
DILUPBiCGStab:  Solving for c, Initial residual = 0.00259953, Final residual = 7.64546e-11, No Iterations 2
Total mass = 67.1241
Flux out = 1.38731e-117
Adaptive time = 1061.93
DILUPBiCGStab:  Solving for c, Initial residual = 0.0025769, Final residual = 7.49657e-11, No Iterations 2
Total mass = 67.7571
Flux out = 4.86077e-117
Adaptive time = 1071.85
DILUPBiCGStab:  Solving for c, Initial residual = 0.00255471, Final residual = 7.34569e-11, No Iterations 2
Total mass = 68.3901
Flux out = 1.69515e-116
Adaptive time = 1081.78
DILUPBiCGStab:  Solving for c, Initial residual = 0.00253292, Final residual = 7.19355e-11, No Iterations 2
Total mass = 69.023
Flux out = 5.88348e-116
Adaptive time = 1091.7
DILUPBiCGStab:  Solving for c, Initial residual = 0.00251153, Final residual = 7.04097e-11, No Iterations 2
Total mass = 69.656
Flux out = 2.03208e-115
Adaptive time = 1101.63
DILUPBiCGStab:  Solving for c, Initial residual = 0.00249053, Final residual = 6.88868e-11, No Iterations 2
Total mass = 70.2889
Flux out = 6.98376e-115
Adaptive time = 1111.55
DILUPBiCGStab:  Solving for c, Initial residual = 0.00246991, Final residual = 6.7373e-11, No Iterations 2
Total mass = 70.9219
Flux out = 2.38805e-114
Adaptive time = 1121.48
DILUPBiCGStab:  Solving for c, Initial residual = 0.00244965, Final residual = 6.58748e-11, No Iterations 2
Total mass = 71.5548
Flux out = 8.12404e-114
Adaptive time = 1131.4
DILUPBiCGStab:  Solving for c, Initial residual = 0.00242976, Final residual = 6.43976e-11, No Iterations 2
Total mass = 72.1878
Flux out = 2.74946e-113
Adaptive time = 1141.33
DILUPBiCGStab:  Solving for c, Initial residual = 0.00241022, Final residual = 6.29465e-11, No Iterations 2
Total mass = 72.8207
Flux out = 9.25647e-113
Adaptive time = 1151.25
DILUPBiCGStab:  Solving for c, Initial residual = 0.00239102, Final residual = 6.15253e-11, No Iterations 2
Total mass = 73.4537
Flux out = 3.09987e-112
Adaptive time = 1161.18
DILUPBiCGStab:  Solving for c, Initial residual = 0.00237214, Final residual = 6.01373e-11, No Iterations 2
Total mass = 74.0866
Flux out = 1.03258e-111
Adaptive time = 1171.1
DILUPBiCGStab:  Solving for c, Initial residual = 0.00235359, Final residual = 5.87865e-11, No Iterations 2
Total mass = 74.7196
Flux out = 3.42112e-111
Adaptive time = 1181.02
DILUPBiCGStab:  Solving for c, Initial residual = 0.00233536, Final residual = 5.74753e-11, No Iterations 2
Total mass = 75.3526
Flux out = 1.12737e-110
Adaptive time = 1190.95
DILUPBiCGStab:  Solving for c, Initial residual = 0.00231743, Final residual = 5.62054e-11, No Iterations 2
Total mass = 75.9855
Flux out = 3.69492e-110
Adaptive time = 1200.87
DILUPBiCGStab:  Solving for c, Initial residual = 0.00229981, Final residual = 5.49789e-11, No Iterations 2
Total mass = 76.6185
Flux out = 1.20442e-109
Adaptive time = 1210.8
DILUPBiCGStab:  Solving for c, Initial residual = 0.00228248, Final residual = 5.37965e-11, No Iterations 2
Total mass = 77.2514
Flux out = 3.90459e-109
Adaptive time = 1220.72
DILUPBiCGStab:  Solving for c, Initial residual = 0.00226542, Final residual = 5.26594e-11, No Iterations 2
Total mass = 77.8844
Flux out = 1.25891e-108
Adaptive time = 1230.65
DILUPBiCGStab:  Solving for c, Initial residual = 0.00224865, Final residual = 5.15685e-11, No Iterations 2
Total mass = 78.5173
Flux out = 4.03673e-108
Adaptive time = 1240.57
DILUPBiCGStab:  Solving for c, Initial residual = 0.00223215, Final residual = 5.05232e-11, No Iterations 2
Total mass = 79.1503
Flux out = 1.28731e-107
Adaptive time = 1250.5
DILUPBiCGStab:  Solving for c, Initial residual = 0.00221591, Final residual = 4.95234e-11, No Iterations 2
Total mass = 79.7832
Flux out = 4.08271e-107
Adaptive time = 1260.42
DILUPBiCGStab:  Solving for c, Initial residual = 0.00219993, Final residual = 4.85688e-11, No Iterations 2
Total mass = 80.4162
Flux out = 1.28776e-106
Adaptive time = 1270.35
DILUPBiCGStab:  Solving for c, Initial residual = 0.00218421, Final residual = 4.76588e-11, No Iterations 2
Total mass = 81.0491
Flux out = 4.03958e-106
Adaptive time = 1280.27
DILUPBiCGStab:  Solving for c, Initial residual = 0.00216873, Final residual = 4.67914e-11, No Iterations 2
Total mass = 81.6821
Flux out = 1.26027e-105
Adaptive time = 1290.19
DILUPBiCGStab:  Solving for c, Initial residual = 0.00215349, Final residual = 4.59649e-11, No Iterations 2
Total mass = 82.3151
Flux out = 3.91035e-105
Adaptive time = 1300.12
DILUPBiCGStab:  Solving for c, Initial residual = 0.00213848, Final residual = 4.51786e-11, No Iterations 2
Total mass = 82.948
Flux out = 1.2067e-104
Adaptive time = 1310.04
DILUPBiCGStab:  Solving for c, Initial residual = 0.00212371, Final residual = 4.44306e-11, No Iterations 2
Total mass = 83.581
Flux out = 3.7036e-104
Adaptive time = 1319.97
DILUPBiCGStab:  Solving for c, Initial residual = 0.00210916, Final residual = 4.37187e-11, No Iterations 2
Total mass = 84.2139
Flux out = 1.13056e-103
Adaptive time = 1329.89
DILUPBiCGStab:  Solving for c, Initial residual = 0.00209483, Final residual = 4.3041e-11, No Iterations 2
Total mass = 84.8469
Flux out = 3.43253e-103
Adaptive time = 1339.82
DILUPBiCGStab:  Solving for c, Initial residual = 0.00208072, Final residual = 4.23956e-11, No Iterations 2
Total mass = 85.4798
Flux out = 1.03657e-102
Adaptive time = 1349.74
DILUPBiCGStab:  Solving for c, Initial residual = 0.00206681, Final residual = 4.17802e-11, No Iterations 2
Total mass = 86.1128
Flux out = 3.11352e-102
Adaptive time = 1359.67
DILUPBiCGStab:  Solving for c, Initial residual = 0.00205311, Final residual = 4.11932e-11, No Iterations 2
Total mass = 86.7457
Flux out = 9.30218e-102
Adaptive time = 1369.59
DILUPBiCGStab:  Solving for c, Initial residual = 0.00203961, Final residual = 4.06324e-11, No Iterations 2
Total mass = 87.3787
Flux out = 2.76444e-101
Adaptive time = 1379.52
DILUPBiCGStab:  Solving for c, Initial residual = 0.00202631, Final residual = 4.00961e-11, No Iterations 2
Total mass = 88.0116
Flux out = 8.172e-101
Adaptive time = 1389.44
DILUPBiCGStab:  Solving for c, Initial residual = 0.0020132, Final residual = 3.95819e-11, No Iterations 2
Total mass = 88.6446
Flux out = 2.40304e-100
Adaptive time = 1399.36
DILUPBiCGStab:  Solving for c, Initial residual = 0.00200027, Final residual = 3.90885e-11, No Iterations 2
Total mass = 89.2775
Flux out = 7.02931e-100
Adaptive time = 1409.29
DILUPBiCGStab:  Solving for c, Initial residual = 0.00198754, Final residual = 3.86143e-11, No Iterations 2
Total mass = 89.9105
Flux out = 2.04549e-99
Adaptive time = 1419.21
DILUPBiCGStab:  Solving for c, Initial residual = 0.00197498, Final residual = 3.8158e-11, No Iterations 2
Total mass = 90.5434
Flux out = 5.92142e-99
Adaptive time = 1429.14
DILUPBiCGStab:  Solving for c, Initial residual = 0.0019626, Final residual = 3.77181e-11, No Iterations 2
Total mass = 91.1764
Flux out = 1.70533e-98
Adaptive time = 1439.06
DILUPBiCGStab:  Solving for c, Initial residual = 0.00195039, Final residual = 3.72936e-11, No Iterations 2
Total mass = 91.8094
Flux out = 4.88607e-98
Adaptive time = 1448.99
DILUPBiCGStab:  Solving for c, Initial residual = 0.00193835, Final residual = 3.68833e-11, No Iterations 2
Total mass = 92.4423
Flux out = 1.3928e-97
Adaptive time = 1458.91
DILUPBiCGStab:  Solving for c, Initial residual = 0.00192648, Final residual = 3.64863e-11, No Iterations 2
Total mass = 93.0753
Flux out = 3.95011e-97
Adaptive time = 1468.84
DILUPBiCGStab:  Solving for c, Initial residual = 0.00191477, Final residual = 3.6102e-11, No Iterations 2
Total mass = 93.7082
Flux out = 1.11464e-96
Adaptive time = 1478.76
DILUPBiCGStab:  Solving for c, Initial residual = 0.00190322, Final residual = 3.57297e-11, No Iterations 2
Total mass = 94.3412
Flux out = 3.12949e-96
Adaptive time = 1488.69
DILUPBiCGStab:  Solving for c, Initial residual = 0.00189182, Final residual = 3.53688e-11, No Iterations 2
Total mass = 94.9741
Flux out = 8.74263e-96
Adaptive time = 1498.61
DILUPBiCGStab:  Solving for c, Initial residual = 0.00188058, Final residual = 3.50188e-11, No Iterations 2
Total mass = 95.6071
Flux out = 2.43025e-95
Adaptive time = 1508.54
DILUPBiCGStab:  Solving for c, Initial residual = 0.00186949, Final residual = 3.46796e-11, No Iterations 2
Total mass = 96.24
Flux out = 6.72225e-95
Adaptive time = 1518.46
DILUPBiCGStab:  Solving for c, Initial residual = 0.00185854, Final residual = 3.43504e-11, No Iterations 2
Total mass = 96.873
Flux out = 1.85031e-94
Adaptive time = 1528.38
DILUPBiCGStab:  Solving for c, Initial residual = 0.00184773, Final residual = 3.40307e-11, No Iterations 2
Total mass = 97.5059
Flux out = 5.06819e-94
Adaptive time = 1538.31
DILUPBiCGStab:  Solving for c, Initial residual = 0.00183707, Final residual = 3.37207e-11, No Iterations 2
Total mass = 98.1389
Flux out = 1.38151e-93
Adaptive time = 1548.23
DILUPBiCGStab:  Solving for c, Initial residual = 0.00182655, Final residual = 3.34203e-11, No Iterations 2
Total mass = 98.7718
Flux out = 3.74763e-93
Adaptive time = 1558.16
DILUPBiCGStab:  Solving for c, Initial residual = 0.00181617, Final residual = 3.31294e-11, No Iterations 2
Total mass = 99.4048
Flux out = 1.01176e-92
Adaptive time = 1568.08
DILUPBiCGStab:  Solving for c, Initial residual = 0.00180591, Final residual = 3.28481e-11, No Iterations 2
Total mass = 100.038
Flux out = 2.71851e-92
Adaptive time = 1578.01
DILUPBiCGStab:  Solving for c, Initial residual = 0.00179579, Final residual = 3.25771e-11, No Iterations 2
Total mass = 100.671
Flux out = 7.26983e-92
Adaptive time = 1587.93
DILUPBiCGStab:  Solving for c, Initial residual = 0.0017858, Final residual = 3.23165e-11, No Iterations 2
Total mass = 101.304
Flux out = 1.93497e-91
Adaptive time = 1597.86
DILUPBiCGStab:  Solving for c, Initial residual = 0.00177593, Final residual = 3.20674e-11, No Iterations 2
Total mass = 101.937
Flux out = 5.12614e-91
Adaptive time = 1607.78
DILUPBiCGStab:  Solving for c, Initial residual = 0.00176619, Final residual = 3.18307e-11, No Iterations 2
Total mass = 102.57
Flux out = 1.35172e-90
Adaptive time = 1617.71
DILUPBiCGStab:  Solving for c, Initial residual = 0.00175657, Final residual = 3.16074e-11, No Iterations 2
Total mass = 103.203
Flux out = 3.54795e-90
Adaptive time = 1627.63
DILUPBiCGStab:  Solving for c, Initial residual = 0.00174706, Final residual = 3.13989e-11, No Iterations 2
Total mass = 103.835
Flux out = 9.26987e-90
Adaptive time = 1637.55
DILUPBiCGStab:  Solving for c, Initial residual = 0.00173767, Final residual = 3.12071e-11, No Iterations 2
Total mass = 104.468
Flux out = 2.41094e-89
Adaptive time = 1647.48
DILUPBiCGStab:  Solving for c, Initial residual = 0.00172841, Final residual = 3.10338e-11, No Iterations 2
Total mass = 105.101
Flux out = 6.2421e-89
Adaptive time = 1657.4
DILUPBiCGStab:  Solving for c, Initial residual = 0.00171925, Final residual = 3.08813e-11, No Iterations 2
Total mass = 105.734
Flux out = 1.60886e-88
Adaptive time = 1667.33
DILUPBiCGStab:  Solving for c, Initial residual = 0.0017102, Final residual = 3.07523e-11, No Iterations 2
Total mass = 106.367
Flux out = 4.12818e-88
Adaptive time = 1677.25
DILUPBiCGStab:  Solving for c, Initial residual = 0.00170126, Final residual = 3.06501e-11, No Iterations 2
Total mass = 107
Flux out = 1.05455e-87
Adaptive time = 1687.18
DILUPBiCGStab:  Solving for c, Initial residual = 0.00169243, Final residual = 3.05782e-11, No Iterations 2
Total mass = 107.633
Flux out = 2.68197e-87
Adaptive time = 1697.1
DILUPBiCGStab:  Solving for c, Initial residual = 0.0016837, Final residual = 3.05408e-11, No Iterations 2
Total mass = 108.266
Flux out = 6.79097e-87
Adaptive time = 1707.03
DILUPBiCGStab:  Solving for c, Initial residual = 0.00167508, Final residual = 3.05429e-11, No Iterations 2
Total mass = 108.899
Flux out = 1.71204e-86
Adaptive time = 1716.95
DILUPBiCGStab:  Solving for c, Initial residual = 0.00166656, Final residual = 3.05899e-11, No Iterations 2
Total mass = 109.532
Flux out = 4.29743e-86
Adaptive time = 1726.88
DILUPBiCGStab:  Solving for c, Initial residual = 0.00165814, Final residual = 3.06878e-11, No Iterations 2
Total mass = 110.165
Flux out = 1.07407e-85
Adaptive time = 1736.8
DILUPBiCGStab:  Solving for c, Initial residual = 0.00164981, Final residual = 3.08437e-11, No Iterations 2
Total mass = 110.798
Flux out = 2.67297e-85
Adaptive time = 1746.72
DILUPBiCGStab:  Solving for c, Initial residual = 0.00164158, Final residual = 3.10655e-11, No Iterations 2
Total mass = 111.431
Flux out = 6.62377e-85
Adaptive time = 1756.65
DILUPBiCGStab:  Solving for c, Initial residual = 0.00163345, Final residual = 3.13621e-11, No Iterations 2
Total mass = 112.064
Flux out = 1.63448e-84
Adaptive time = 1766.57
DILUPBiCGStab:  Solving for c, Initial residual = 0.00162541, Final residual = 3.17428e-11, No Iterations 2
Total mass = 112.697
Flux out = 4.01629e-84
Adaptive time = 1776.5
DILUPBiCGStab:  Solving for c, Initial residual = 0.00161746, Final residual = 3.22188e-11, No Iterations 2
Total mass = 113.33
Flux out = 9.82781e-84
Adaptive time = 1786.42
DILUPBiCGStab:  Solving for c, Initial residual = 0.00160961, Final residual = 3.28022e-11, No Iterations 2
Total mass = 113.963
Flux out = 2.39488e-83
Adaptive time = 1796.35
DILUPBiCGStab:  Solving for c, Initial residual = 0.00160184, Final residual = 3.3506e-11, No Iterations 2
Total mass = 114.596
Flux out = 5.81189e-83
Adaptive time = 1806.27
DILUPBiCGStab:  Solving for c, Initial residual = 0.00159415, Final residual = 3.43446e-11, No Iterations 2
Total mass = 115.229
Flux out = 1.40465e-82
Adaptive time = 1816.2
DILUPBiCGStab:  Solving for c, Initial residual = 0.00158655, Final residual = 3.53349e-11, No Iterations 2
Total mass = 115.862
Flux out = 3.38105e-82
Adaptive time = 1826.12
DILUPBiCGStab:  Solving for c, Initial residual = 0.00157904, Final residual = 3.64941e-11, No Iterations 2
Total mass = 116.495
Flux out = 8.10536e-82
Adaptive time = 1836.05
DILUPBiCGStab:  Solving for c, Initial residual = 0.00157161, Final residual = 3.78415e-11, No Iterations 2
Total mass = 117.127
Flux out = 1.93529e-81
Adaptive time = 1845.97
DILUPBiCGStab:  Solving for c, Initial residual = 0.00156426, Final residual = 3.93978e-11, No Iterations 2
Total mass = 117.76
Flux out = 4.60235e-81
Adaptive time = 1855.9
DILUPBiCGStab:  Solving for c, Initial residual = 0.001557, Final residual = 4.11853e-11, No Iterations 2
Total mass = 118.393
Flux out = 1.09015e-80
Adaptive time = 1865.82
DILUPBiCGStab:  Solving for c, Initial residual = 0.00154981, Final residual = 4.32278e-11, No Iterations 2
Total mass = 119.026
Flux out = 2.57203e-80
Adaptive time = 1875.74
DILUPBiCGStab:  Solving for c, Initial residual = 0.00154269, Final residual = 4.5551e-11, No Iterations 2
Total mass = 119.659
Flux out = 6.0445e-80
Adaptive time = 1885.67
DILUPBiCGStab:  Solving for c, Initial residual = 0.00153566, Final residual = 4.81824e-11, No Iterations 2
Total mass = 120.292
Flux out = 1.41497e-79
Adaptive time = 1895.59
DILUPBiCGStab:  Solving for c, Initial residual = 0.0015287, Final residual = 5.11511e-11, No Iterations 2
Total mass = 120.925
Flux out = 3.29951e-79
Adaptive time = 1905.52
DILUPBiCGStab:  Solving for c, Initial residual = 0.00152181, Final residual = 5.44887e-11, No Iterations 2
Total mass = 121.558
Flux out = 7.66438e-79
Adaptive time = 1915.44
DILUPBiCGStab:  Solving for c, Initial residual = 0.001515, Final residual = 5.8228e-11, No Iterations 2
Total mass = 122.191
Flux out = 1.77353e-78
Adaptive time = 1925.37
DILUPBiCGStab:  Solving for c, Initial residual = 0.00150826, Final residual = 6.24042e-11, No Iterations 2
Total mass = 122.824
Flux out = 4.08832e-78
Adaptive time = 1935.29
DILUPBiCGStab:  Solving for c, Initial residual = 0.00150159, Final residual = 6.70553e-11, No Iterations 2
Total mass = 123.457
Flux out = 9.38872e-78
Adaptive time = 1945.22
DILUPBiCGStab:  Solving for c, Initial residual = 0.00149499, Final residual = 7.2223e-11, No Iterations 2
Total mass = 124.09
Flux out = 2.14799e-77
Adaptive time = 1955.14
DILUPBiCGStab:  Solving for c, Initial residual = 0.00148846, Final residual = 7.79539e-11, No Iterations 2
Total mass = 124.723
Flux out = 4.89591e-77
Adaptive time = 1965.07
DILUPBiCGStab:  Solving for c, Initial residual = 0.001482, Final residual = 8.42986e-11, No Iterations 2
Total mass = 125.356
Flux out = 1.11178e-76
Adaptive time = 1974.99
DILUPBiCGStab:  Solving for c, Initial residual = 0.0014756, Final residual = 9.13151e-11, No Iterations 2
Total mass = 125.989
Flux out = 2.51535e-76
Adaptive time = 1984.91
DILUPBiCGStab:  Solving for c, Initial residual = 0.00146927, Final residual = 9.90717e-11, No Iterations 2
Total mass = 126.622
Flux out = 5.66998e-76
Adaptive time = 1994.84
DILUPBiCGStab:  Solving for c, Initial residual = 0.001463, Final residual = 5.6755e-13, No Iterations 2
Total mass = 127.255
Flux out = 1.27344e-75
Adaptive time = 2004.76
DILUPBiCGStab:  Solving for c, Initial residual = 0.0014568, Final residual = 6.07991e-13, No Iterations 2
Total mass = 127.888
Flux out = 2.84968e-75
Adaptive time = 2014.69
DILUPBiCGStab:  Solving for c, Initial residual = 0.00145066, Final residual = 6.52256e-13, No Iterations 2
Total mass = 128.521
Flux out = 6.354e-75
Adaptive time = 2024.61
DILUPBiCGStab:  Solving for c, Initial residual = 0.00144458, Final residual = 7.00516e-13, No Iterations 2
Total mass = 129.154
Flux out = 1.41169e-74
Adaptive time = 2034.54
DILUPBiCGStab:  Solving for c, Initial residual = 0.00143856, Final residual = 7.52839e-13, No Iterations 2
Total mass = 129.786
Flux out = 3.12522e-74
Adaptive time = 2044.46
DILUPBiCGStab:  Solving for c, Initial residual = 0.0014326, Final residual = 8.09184e-13, No Iterations 2
Total mass = 130.419
Flux out = 6.89418e-74
Adaptive time = 2054.39
DILUPBiCGStab:  Solving for c, Initial residual = 0.0014267, Final residual = 8.6942e-13, No Iterations 2
Total mass = 131.052
Flux out = 1.51549e-73
Adaptive time = 2064.31
DILUPBiCGStab:  Solving for c, Initial residual = 0.00142087, Final residual = 9.33153e-13, No Iterations 2
Total mass = 131.685
Flux out = 3.31971e-73
Adaptive time = 2074.24
DILUPBiCGStab:  Solving for c, Initial residual = 0.00141508, Final residual = 9.99446e-13, No Iterations 2
Total mass = 132.318
Flux out = 7.24658e-73
Adaptive time = 2084.16
DILUPBiCGStab:  Solving for c, Initial residual = 0.00140935, Final residual = 1.0662e-12, No Iterations 2
Total mass = 132.951
Flux out = 1.57638e-72
Adaptive time = 2094.08
DILUPBiCGStab:  Solving for c, Initial residual = 0.00140368, Final residual = 1.13085e-12, No Iterations 2
Total mass = 133.584
Flux out = 3.41738e-72
Adaptive time = 2104.01
DILUPBiCGStab:  Solving for c, Initial residual = 0.00139807, Final residual = 1.18882e-12, No Iterations 2
Total mass = 134.217
Flux out = 7.38309e-72
Adaptive time = 2113.93
DILUPBiCGStab:  Solving for c, Initial residual = 0.0013925, Final residual = 1.23245e-12, No Iterations 2
Total mass = 134.85
Flux out = 1.58966e-71
Adaptive time = 2123.86
DILUPBiCGStab:  Solving for c, Initial residual = 0.001387, Final residual = 1.25349e-12, No Iterations 2
Total mass = 135.483
Flux out = 3.41113e-71
Adaptive time = 2133.78
DILUPBiCGStab:  Solving for c, Initial residual = 0.00138154, Final residual = 1.4764e-12, No Iterations 2
Total mass = 136.116
Flux out = 7.2951e-71
Adaptive time = 2143.71
DILUPBiCGStab:  Solving for c, Initial residual = 0.00137614, Final residual = 2.07976e-12, No Iterations 2
Total mass = 136.749
Flux out = 1.55493e-70
Adaptive time = 2153.63
DILUPBiCGStab:  Solving for c, Initial residual = 0.00137078, Final residual = 2.91977e-12, No Iterations 2
Total mass = 137.382
Flux out = 3.30326e-70
Adaptive time = 2163.56
DILUPBiCGStab:  Solving for c, Initial residual = 0.00136548, Final residual = 4.03229e-12, No Iterations 2
Total mass = 138.015
Flux out = 6.99421e-70
Adaptive time = 2173.48
DILUPBiCGStab:  Solving for c, Initial residual = 0.00136023, Final residual = 5.46572e-12, No Iterations 2
Total mass = 138.648
Flux out = 1.47606e-69
Adaptive time = 2183.41
DILUPBiCGStab:  Solving for c, Initial residual = 0.00135503, Final residual = 7.24972e-12, No Iterations 2
Total mass = 139.281
Flux out = 3.10492e-69
Adaptive time = 2193.33
DILUPBiCGStab:  Solving for c, Initial residual = 0.00134988, Final residual = 9.43657e-12, No Iterations 2
Total mass = 139.914
Flux out = 6.51002e-69
Adaptive time = 2203.26
DILUPBiCGStab:  Solving for c, Initial residual = 0.00134477, Final residual = 1.20809e-11, No Iterations 2
Total mass = 140.547
Flux out = 1.36053e-68
Adaptive time = 2213.18
DILUPBiCGStab:  Solving for c, Initial residual = 0.00133971, Final residual = 1.5243e-11, No Iterations 2
Total mass = 141.18
Flux out = 2.83425e-68
Adaptive time = 2223.1
DILUPBiCGStab:  Solving for c, Initial residual = 0.0013347, Final residual = 1.89947e-11, No Iterations 2
Total mass = 141.813
Flux out = 5.88543e-68
Adaptive time = 2233.03
DILUPBiCGStab:  Solving for c, Initial residual = 0.00132973, Final residual = 2.34276e-11, No Iterations 2
Total mass = 142.446
Flux out = 1.21825e-67
Adaptive time = 2242.95
DILUPBiCGStab:  Solving for c, Initial residual = 0.00132481, Final residual = 2.86641e-11, No Iterations 2
Total mass = 143.078
Flux out = 2.51373e-67
Adaptive time = 2252.88
DILUPBiCGStab:  Solving for c, Initial residual = 0.00131993, Final residual = 3.48778e-11, No Iterations 2
Total mass = 143.711
Flux out = 5.17054e-67
Adaptive time = 2262.8
DILUPBiCGStab:  Solving for c, Initial residual = 0.0013151, Final residual = 4.23409e-11, No Iterations 2
Total mass = 144.344
Flux out = 1.06021e-66
Adaptive time = 2272.73
DILUPBiCGStab:  Solving for c, Initial residual = 0.00131032, Final residual = 5.147e-11, No Iterations 2
Total mass = 144.977
Flux out = 2.1672e-66
Adaptive time = 2282.65
DILUPBiCGStab:  Solving for c, Initial residual = 0.00130557, Final residual = 6.29015e-11, No Iterations 2
Total mass = 145.61
Flux out = 4.41632e-66
Adaptive time = 2292.58
DILUPBiCGStab:  Solving for c, Initial residual = 0.00130086, Final residual = 7.7618e-11, No Iterations 2
Total mass = 146.243
Flux out = 8.97191e-66
Adaptive time = 2302.5
DILUPBiCGStab:  Solving for c, Initial residual = 0.0012962, Final residual = 9.65628e-11, No Iterations 2
Total mass = 146.876
Flux out = 1.8171e-65
Adaptive time = 2312.43
DILUPBiCGStab:  Solving for c, Initial residual = 0.00129159, Final residual = 1.3078e-13, No Iterations 3
Total mass = 147.509
Flux out = 3.66903e-65
Adaptive time = 2322.35
DILUPBiCGStab:  Solving for c, Initial residual = 0.00128701, Final residual = 1.2948e-13, No Iterations 3
Total mass = 148.142
Flux out = 7.38599e-65
Adaptive time = 2332.27
DILUPBiCGStab:  Solving for c, Initial residual = 0.00128247, Final residual = 1.26246e-13, No Iterations 3
Total mass = 148.775
Flux out = 1.48237e-64
Adaptive time = 2342.2
DILUPBiCGStab:  Solving for c, Initial residual = 0.00127797, Final residual = 1.2064e-13, No Iterations 3
Total mass = 149.408
Flux out = 2.96623e-64
Adaptive time = 2352.12
DILUPBiCGStab:  Solving for c, Initial residual = 0.00127351, Final residual = 1.12472e-13, No Iterations 3
Total mass = 150.041
Flux out = 5.91777e-64
Adaptive time = 2362.05
DILUPBiCGStab:  Solving for c, Initial residual = 0.00126909, Final residual = 1.01699e-13, No Iterations 3
Total mass = 150.674
Flux out = 1.17713e-63
Adaptive time = 2371.97
DILUPBiCGStab:  Solving for c, Initial residual = 0.0012647, Final residual = 8.81327e-14, No Iterations 3
Total mass = 151.307
Flux out = 2.33458e-63
Adaptive time = 2381.9
DILUPBiCGStab:  Solving for c, Initial residual = 0.00126036, Final residual = 7.00397e-14, No Iterations 3
Total mass = 151.94
Flux out = 4.61659e-63
Adaptive time = 2391.82
DILUPBiCGStab:  Solving for c, Initial residual = 0.00125605, Final residual = 4.80544e-14, No Iterations 3
Total mass = 152.573
Flux out = 9.10262e-63
Adaptive time = 2401.75
DILUPBiCGStab:  Solving for c, Initial residual = 0.00125178, Final residual = 4.32389e-14, No Iterations 3
Total mass = 153.206
Flux out = 1.78958e-62
Adaptive time = 2411.67
DILUPBiCGStab:  Solving for c, Initial residual = 0.00124755, Final residual = 6.4671e-14, No Iterations 3
Total mass = 153.839
Flux out = 3.50818e-62
Adaptive time = 2421.6
DILUPBiCGStab:  Solving for c, Initial residual = 0.00124335, Final residual = 8.58231e-14, No Iterations 3
Total mass = 154.472
Flux out = 6.85751e-62
Adaptive time = 2431.52
DILUPBiCGStab:  Solving for c, Initial residual = 0.00123919, Final residual = 1.03762e-13, No Iterations 3
Total mass = 155.105
Flux out = 1.33663e-61
Adaptive time = 2441.45
DILUPBiCGStab:  Solving for c, Initial residual = 0.00123506, Final residual = 1.18035e-13, No Iterations 3
Total mass = 155.737
Flux out = 2.59789e-61
Adaptive time = 2451.37
DILUPBiCGStab:  Solving for c, Initial residual = 0.00123097, Final residual = 1.28602e-13, No Iterations 3
Total mass = 156.37
Flux out = 5.03503e-61
Adaptive time = 2461.29
DILUPBiCGStab:  Solving for c, Initial residual = 0.00122691, Final residual = 1.36438e-13, No Iterations 3
Total mass = 157.003
Flux out = 9.73113e-61
Adaptive time = 2471.22
DILUPBiCGStab:  Solving for c, Initial residual = 0.00122289, Final residual = 1.41884e-13, No Iterations 3
Total mass = 157.636
Flux out = 1.87547e-60
Adaptive time = 2481.14
DILUPBiCGStab:  Solving for c, Initial residual = 0.0012189, Final residual = 1.45142e-13, No Iterations 3
Total mass = 158.269
Flux out = 3.60452e-60
Adaptive time = 2491.07
DILUPBiCGStab:  Solving for c, Initial residual = 0.00121494, Final residual = 1.46798e-13, No Iterations 3
Total mass = 158.902
Flux out = 6.90849e-60
Adaptive time = 2500.99
DILUPBiCGStab:  Solving for c, Initial residual = 0.00121101, Final residual = 1.47481e-13, No Iterations 3
Total mass = 159.535
Flux out = 1.32045e-59
Adaptive time = 2510.92
DILUPBiCGStab:  Solving for c, Initial residual = 0.00120712, Final residual = 1.47919e-13, No Iterations 3
Total mass = 160.168
Flux out = 2.51693e-59
Adaptive time = 2520.84
DILUPBiCGStab:  Solving for c, Initial residual = 0.00120326, Final residual = 1.48395e-13, No Iterations 3
Total mass = 160.801
Flux out = 4.7845e-59
Adaptive time = 2530.77
DILUPBiCGStab:  Solving for c, Initial residual = 0.00119943, Final residual = 1.4848e-13, No Iterations 3
Total mass = 161.434
Flux out = 9.07035e-59
Adaptive time = 2540.69
DILUPBiCGStab:  Solving for c, Initial residual = 0.00119563, Final residual = 1.48181e-13, No Iterations 3
Total mass = 162.067
Flux out = 1.7149e-58
Adaptive time = 2550.62
DILUPBiCGStab:  Solving for c, Initial residual = 0.00119187, Final residual = 1.476e-13, No Iterations 3
Total mass = 162.7
Flux out = 3.23362e-58
Adaptive time = 2560.54
DILUPBiCGStab:  Solving for c, Initial residual = 0.00118813, Final residual = 1.46829e-13, No Iterations 3
Total mass = 163.333
Flux out = 6.08105e-58
Adaptive time = 2570.46
DILUPBiCGStab:  Solving for c, Initial residual = 0.00118442, Final residual = 1.45936e-13, No Iterations 3
Total mass = 163.966
Flux out = 1.14055e-57
Adaptive time = 2580.39
DILUPBiCGStab:  Solving for c, Initial residual = 0.00118074, Final residual = 1.4497e-13, No Iterations 3
Total mass = 164.599
Flux out = 2.13354e-57
Adaptive time = 2590.31
DILUPBiCGStab:  Solving for c, Initial residual = 0.0011771, Final residual = 1.43975e-13, No Iterations 3
Total mass = 165.232
Flux out = 3.98055e-57
Adaptive time = 2600.24
DILUPBiCGStab:  Solving for c, Initial residual = 0.00117348, Final residual = 1.42971e-13, No Iterations 3
Total mass = 165.865
Flux out = 7.40714e-57
Adaptive time = 2610.16
DILUPBiCGStab:  Solving for c, Initial residual = 0.00116989, Final residual = 1.41974e-13, No Iterations 3
Total mass = 166.498
Flux out = 1.37476e-56
Adaptive time = 2620.09
DILUPBiCGStab:  Solving for c, Initial residual = 0.00116633, Final residual = 1.40989e-13, No Iterations 3
Total mass = 167.131
Flux out = 2.54493e-56
Adaptive time = 2630.01
DILUPBiCGStab:  Solving for c, Initial residual = 0.00116279, Final residual = 1.40014e-13, No Iterations 3
Total mass = 167.764
Flux out = 4.69899e-56
Adaptive time = 2639.94
DILUPBiCGStab:  Solving for c, Initial residual = 0.00115928, Final residual = 1.39041e-13, No Iterations 3
Total mass = 168.397
Flux out = 8.65405e-56
Adaptive time = 2649.86
DILUPBiCGStab:  Solving for c, Initial residual = 0.00115581, Final residual = 1.38052e-13, No Iterations 3
Total mass = 169.029
Flux out = 1.58974e-55
Adaptive time = 2659.79
DILUPBiCGStab:  Solving for c, Initial residual = 0.00115236, Final residual = 1.37023e-13, No Iterations 3
Total mass = 169.662
Flux out = 2.91291e-55
Adaptive time = 2669.71
DILUPBiCGStab:  Solving for c, Initial residual = 0.00114893, Final residual = 1.35917e-13, No Iterations 3
Total mass = 170.295
Flux out = 5.32391e-55
Adaptive time = 2679.63
DILUPBiCGStab:  Solving for c, Initial residual = 0.00114553, Final residual = 1.34685e-13, No Iterations 3
Total mass = 170.928
Flux out = 9.70602e-55
Adaptive time = 2689.56
DILUPBiCGStab:  Solving for c, Initial residual = 0.00114216, Final residual = 1.33269e-13, No Iterations 3
Total mass = 171.561
Flux out = 1.76508e-54
Adaptive time = 2699.48
DILUPBiCGStab:  Solving for c, Initial residual = 0.00113882, Final residual = 1.31588e-13, No Iterations 3
Total mass = 172.194
Flux out = 3.20188e-54
Adaptive time = 2709.41
DILUPBiCGStab:  Solving for c, Initial residual = 0.0011355, Final residual = 1.29551e-13, No Iterations 3
Total mass = 172.827
Flux out = 5.79387e-54
Adaptive time = 2719.33
DILUPBiCGStab:  Solving for c, Initial residual = 0.0011322, Final residual = 1.27044e-13, No Iterations 3
Total mass = 173.46
Flux out = 1.04583e-53
Adaptive time = 2729.26
DILUPBiCGStab:  Solving for c, Initial residual = 0.00112893, Final residual = 1.23941e-13, No Iterations 3
Total mass = 174.093
Flux out = 1.88315e-53
Adaptive time = 2739.18
DILUPBiCGStab:  Solving for c, Initial residual = 0.00112569, Final residual = 1.20149e-13, No Iterations 3
Total mass = 174.726
Flux out = 3.38259e-53
Adaptive time = 2749.11
DILUPBiCGStab:  Solving for c, Initial residual = 0.00112247, Final residual = 1.15406e-13, No Iterations 3
Total mass = 175.359
Flux out = 6.06116e-53
Adaptive time = 2759.03
DILUPBiCGStab:  Solving for c, Initial residual = 0.00111927, Final residual = 1.09525e-13, No Iterations 3
Total mass = 175.992
Flux out = 1.08346e-52
Adaptive time = 2768.96
DILUPBiCGStab:  Solving for c, Initial residual = 0.0011161, Final residual = 1.02844e-13, No Iterations 3
Total mass = 176.625
Flux out = 1.93206e-52
Adaptive time = 2778.88
DILUPBiCGStab:  Solving for c, Initial residual = 0.00111295, Final residual = 9.59693e-14, No Iterations 3
Total mass = 177.258
Flux out = 3.43707e-52
Adaptive time = 2788.81
DILUPBiCGStab:  Solving for c, Initial residual = 0.00110983, Final residual = 8.80941e-14, No Iterations 3
Total mass = 177.891
Flux out = 6.09985e-52
Adaptive time = 2798.73
DILUPBiCGStab:  Solving for c, Initial residual = 0.00110673, Final residual = 7.87904e-14, No Iterations 3
Total mass = 178.524
Flux out = 1.07999e-51
Adaptive time = 2808.65
DILUPBiCGStab:  Solving for c, Initial residual = 0.00110365, Final residual = 6.83392e-14, No Iterations 3
Total mass = 179.157
Flux out = 1.90762e-51
Adaptive time = 2818.58
DILUPBiCGStab:  Solving for c, Initial residual = 0.00110059, Final residual = 5.68763e-14, No Iterations 3
Total mass = 179.79
Flux out = 3.36157e-51
Adaptive time = 2828.5
DILUPBiCGStab:  Solving for c, Initial residual = 0.00109756, Final residual = 4.47069e-14, No Iterations 3
Total mass = 180.423
Flux out = 5.90985e-51
Adaptive time = 2838.43
DILUPBiCGStab:  Solving for c, Initial residual = 0.00109455, Final residual = 3.3145e-14, No Iterations 3
Total mass = 181.056
Flux out = 1.03657e-50
Adaptive time = 2848.35
DILUPBiCGStab:  Solving for c, Initial residual = 0.00109156, Final residual = 3.45791e-14, No Iterations 3
Total mass = 181.688
Flux out = 1.81389e-50
Adaptive time = 2858.28
DILUPBiCGStab:  Solving for c, Initial residual = 0.0010886, Final residual = 4.84623e-14, No Iterations 3
Total mass = 182.321
Flux out = 3.16681e-50
Adaptive time = 2868.2
DILUPBiCGStab:  Solving for c, Initial residual = 0.00108565, Final residual = 5.97815e-14, No Iterations 3
Total mass = 182.954
Flux out = 5.51614e-50
Adaptive time = 2878.13
DILUPBiCGStab:  Solving for c, Initial residual = 0.00108273, Final residual = 6.81056e-14, No Iterations 3
Total mass = 183.587
Flux out = 9.58636e-50
Adaptive time = 2888.05
DILUPBiCGStab:  Solving for c, Initial residual = 0.00107983, Final residual = 7.35241e-14, No Iterations 3
Total mass = 184.22
Flux out = 1.6622e-49
Adaptive time = 2897.98
DILUPBiCGStab:  Solving for c, Initial residual = 0.00107694, Final residual = 7.64085e-14, No Iterations 3
Total mass = 184.853
Flux out = 2.8756e-49
Adaptive time = 2907.9
DILUPBiCGStab:  Solving for c, Initial residual = 0.00107409, Final residual = 7.7266e-14, No Iterations 3
Total mass = 185.486
Flux out = 4.96357e-49
Adaptive time = 2917.82
DILUPBiCGStab:  Solving for c, Initial residual = 0.00107125, Final residual = 7.66276e-14, No Iterations 3
Total mass = 186.119
Flux out = 8.54839e-49
Adaptive time = 2927.75
DILUPBiCGStab:  Solving for c, Initial residual = 0.00106843, Final residual = 7.49645e-14, No Iterations 3
Total mass = 186.752
Flux out = 1.46894e-48
Adaptive time = 2937.67
DILUPBiCGStab:  Solving for c, Initial residual = 0.00106563, Final residual = 9.89292e-11, No Iterations 2
Total mass = 187.385
Flux out = 2.51858e-48
Adaptive time = 2947.6
DILUPBiCGStab:  Solving for c, Initial residual = 0.00106285, Final residual = 8.36282e-11, No Iterations 2
Total mass = 188.018
Flux out = 4.30869e-48
Adaptive time = 2957.52
DILUPBiCGStab:  Solving for c, Initial residual = 0.00106009, Final residual = 7.13333e-11, No Iterations 2
Total mass = 188.651
Flux out = 7.35491e-48
Adaptive time = 2967.45
DILUPBiCGStab:  Solving for c, Initial residual = 0.00105735, Final residual = 6.14967e-11, No Iterations 2
Total mass = 189.284
Flux out = 1.25273e-47
Adaptive time = 2977.37
DILUPBiCGStab:  Solving for c, Initial residual = 0.00105463, Final residual = 5.36355e-11, No Iterations 2
Total mass = 189.917
Flux out = 2.12905e-47
Adaptive time = 2987.3
DILUPBiCGStab:  Solving for c, Initial residual = 0.00105193, Final residual = 4.72418e-11, No Iterations 2
Total mass = 190.55
Flux out = 3.61052e-47
Adaptive time = 2997.22
DILUPBiCGStab:  Solving for c, Initial residual = 0.00104925, Final residual = 4.20153e-11, No Iterations 2
Total mass = 191.183
Flux out = 6.1096e-47
Adaptive time = 3007.15
DILUPBiCGStab:  Solving for c, Initial residual = 0.00104659, Final residual = 3.76807e-11, No Iterations 2
Total mass = 191.816
Flux out = 1.03162e-46
Adaptive time = 3017.07
DILUPBiCGStab:  Solving for c, Initial residual = 0.00104394, Final residual = 3.40526e-11, No Iterations 2
Total mass = 192.449
Flux out = 1.73818e-46
Adaptive time = 3026.99
DILUPBiCGStab:  Solving for c, Initial residual = 0.00104132, Final residual = 3.10117e-11, No Iterations 2
Total mass = 193.082
Flux out = 2.92241e-46
Adaptive time = 3036.92
DILUPBiCGStab:  Solving for c, Initial residual = 0.00103871, Final residual = 2.84471e-11, No Iterations 2
Total mass = 193.715
Flux out = 4.90302e-46
Adaptive time = 3046.84
DILUPBiCGStab:  Solving for c, Initial residual = 0.00103612, Final residual = 2.62713e-11, No Iterations 2
Total mass = 194.347
Flux out = 8.20855e-46
Adaptive time = 3056.77
DILUPBiCGStab:  Solving for c, Initial residual = 0.00103355, Final residual = 2.44218e-11, No Iterations 2
Total mass = 194.98
Flux out = 1.37137e-45
Adaptive time = 3066.69
DILUPBiCGStab:  Solving for c, Initial residual = 0.001031, Final residual = 2.28529e-11, No Iterations 2
Total mass = 195.613
Flux out = 2.28627e-45
Adaptive time = 3076.62
DILUPBiCGStab:  Solving for c, Initial residual = 0.00102846, Final residual = 2.1531e-11, No Iterations 2
Total mass = 196.246
Flux out = 3.8036e-45
Adaptive time = 3086.54
DILUPBiCGStab:  Solving for c, Initial residual = 0.00102594, Final residual = 2.04303e-11, No Iterations 2
Total mass = 196.879
Flux out = 6.31478e-45
Adaptive time = 3096.47
DILUPBiCGStab:  Solving for c, Initial residual = 0.00102344, Final residual = 1.95316e-11, No Iterations 2
Total mass = 197.512
Flux out = 1.04622e-44
Adaptive time = 3106.39
DILUPBiCGStab:  Solving for c, Initial residual = 0.00102096, Final residual = 1.88201e-11, No Iterations 2
Total mass = 198.145
Flux out = 1.72977e-44
Adaptive time = 3116.32
DILUPBiCGStab:  Solving for c, Initial residual = 0.00101849, Final residual = 1.82865e-11, No Iterations 2
Total mass = 198.778
Flux out = 2.85407e-44
Adaptive time = 3126.24
DILUPBiCGStab:  Solving for c, Initial residual = 0.00101604, Final residual = 1.79274e-11, No Iterations 2
Total mass = 199.411
Flux out = 4.6995e-44
Adaptive time = 3136.17
DILUPBiCGStab:  Solving for c, Initial residual = 0.00101361, Final residual = 1.7741e-11, No Iterations 2
Total mass = 200.044
Flux out = 7.72244e-44
Adaptive time = 3146.09
DILUPBiCGStab:  Solving for c, Initial residual = 0.00101119, Final residual = 1.77297e-11, No Iterations 2
Total mass = 200.677
Flux out = 1.26642e-43
Adaptive time = 3156.01
DILUPBiCGStab:  Solving for c, Initial residual = 0.00100879, Final residual = 1.79079e-11, No Iterations 2
Total mass = 201.31
Flux out = 2.07264e-43
Adaptive time = 3165.94
DILUPBiCGStab:  Solving for c, Initial residual = 0.0010064, Final residual = 1.82895e-11, No Iterations 2
Total mass = 201.943
Flux out = 3.38529e-43
Adaptive time = 3175.86
DILUPBiCGStab:  Solving for c, Initial residual = 0.00100404, Final residual = 1.8884e-11, No Iterations 2
Total mass = 202.576
Flux out = 5.51823e-43
Adaptive time = 3185.79
DILUPBiCGStab:  Solving for c, Initial residual = 0.00100168, Final residual = 1.97189e-11, No Iterations 2
Total mass = 203.209
Flux out = 8.97715e-43
Adaptive time = 3195.71
DILUPBiCGStab:  Solving for c, Initial residual = 0.000999346, Final residual = 2.07858e-11, No Iterations 2
Total mass = 203.842
Flux out = 1.45752e-42
Adaptive time = 3205.64
DILUPBiCGStab:  Solving for c, Initial residual = 0.000997025, Final residual = 2.20926e-11, No Iterations 2
Total mass = 204.475
Flux out = 2.36175e-42
Adaptive time = 3215.56
DILUPBiCGStab:  Solving for c, Initial residual = 0.00099472, Final residual = 2.36511e-11, No Iterations 2
Total mass = 205.108
Flux out = 3.81943e-42
Adaptive time = 3225.49
DILUPBiCGStab:  Solving for c, Initial residual = 0.000992431, Final residual = 2.54778e-11, No Iterations 2
Total mass = 205.741
Flux out = 6.16471e-42
Adaptive time = 3235.41
DILUPBiCGStab:  Solving for c, Initial residual = 0.000990155, Final residual = 2.7609e-11, No Iterations 2
Total mass = 206.374
Flux out = 9.93069e-42
Adaptive time = 3245.34
DILUPBiCGStab:  Solving for c, Initial residual = 0.000987894, Final residual = 3.00887e-11, No Iterations 2
Total mass = 207.006
Flux out = 1.59662e-41
Adaptive time = 3255.26
DILUPBiCGStab:  Solving for c, Initial residual = 0.00098565, Final residual = 3.2949e-11, No Iterations 2
Total mass = 207.639
Flux out = 2.56204e-41
Adaptive time = 3265.18
DILUPBiCGStab:  Solving for c, Initial residual = 0.00098342, Final residual = 3.6228e-11, No Iterations 2
Total mass = 208.272
Flux out = 4.1033e-41
Adaptive time = 3275.11
DILUPBiCGStab:  Solving for c, Initial residual = 0.000981204, Final residual = 3.99707e-11, No Iterations 2
Total mass = 208.905
Flux out = 6.55915e-41
Adaptive time = 3285.03
DILUPBiCGStab:  Solving for c, Initial residual = 0.000979004, Final residual = 4.42462e-11, No Iterations 2
Total mass = 209.538
Flux out = 1.04648e-40
Adaptive time = 3294.96
DILUPBiCGStab:  Solving for c, Initial residual = 0.000976817, Final residual = 4.91408e-11, No Iterations 2
Total mass = 210.171
Flux out = 1.66644e-40
Adaptive time = 3304.88
DILUPBiCGStab:  Solving for c, Initial residual = 0.000974645, Final residual = 5.47643e-11, No Iterations 2
Total mass = 210.804
Flux out = 2.64867e-40
Adaptive time = 3314.81
DILUPBiCGStab:  Solving for c, Initial residual = 0.000972486, Final residual = 6.12588e-11, No Iterations 2
Total mass = 211.437
Flux out = 4.20189e-40
Adaptive time = 3324.73
DILUPBiCGStab:  Solving for c, Initial residual = 0.000970342, Final residual = 6.88147e-11, No Iterations 2
Total mass = 212.07
Flux out = 6.65345e-40
Adaptive time = 3334.66
DILUPBiCGStab:  Solving for c, Initial residual = 0.000968212, Final residual = 7.7696e-11, No Iterations 2
Total mass = 212.703
Flux out = 1.05157e-39
Adaptive time = 3344.58
DILUPBiCGStab:  Solving for c, Initial residual = 0.000966095, Final residual = 8.82847e-11, No Iterations 2
Total mass = 213.336
Flux out = 1.65889e-39
Adaptive time = 3354.51
DILUPBiCGStab:  Solving for c, Initial residual = 0.000963992, Final residual = 3.17263e-14, No Iterations 3
Total mass = 213.969
Flux out = 2.61211e-39
Adaptive time = 3364.43
DILUPBiCGStab:  Solving for c, Initial residual = 0.000961903, Final residual = 2.99404e-14, No Iterations 3
Total mass = 214.602
Flux out = 4.10549e-39
Adaptive time = 3374.35
DILUPBiCGStab:  Solving for c, Initial residual = 0.000959826, Final residual = 2.80217e-14, No Iterations 3
Total mass = 215.235
Flux out = 6.44079e-39
Adaptive time = 3384.28
DILUPBiCGStab:  Solving for c, Initial residual = 0.000957763, Final residual = 2.59805e-14, No Iterations 3
Total mass = 215.868
Flux out = 1.0086e-38
Adaptive time = 3394.2
DILUPBiCGStab:  Solving for c, Initial residual = 0.000955714, Final residual = 2.38343e-14, No Iterations 3
Total mass = 216.501
Flux out = 1.57654e-38
Adaptive time = 3404.13
DILUPBiCGStab:  Solving for c, Initial residual = 0.000953676, Final residual = 2.16045e-14, No Iterations 3
Total mass = 217.134
Flux out = 2.45981e-38
Adaptive time = 3414.05
DILUPBiCGStab:  Solving for c, Initial residual = 0.000951653, Final residual = 1.93194e-14, No Iterations 3
Total mass = 217.767
Flux out = 3.831e-38
Adaptive time = 3423.98
DILUPBiCGStab:  Solving for c, Initial residual = 0.000949643, Final residual = 1.70111e-14, No Iterations 3
Total mass = 218.4
Flux out = 5.95581e-38
Adaptive time = 3433.9
DILUPBiCGStab:  Solving for c, Initial residual = 0.000947644, Final residual = 1.47105e-14, No Iterations 3
Total mass = 219.033
Flux out = 9.2425e-38
Adaptive time = 3443.83
DILUPBiCGStab:  Solving for c, Initial residual = 0.000945658, Final residual = 1.24548e-14, No Iterations 3
Total mass = 219.665
Flux out = 1.43173e-37
Adaptive time = 3453.75
DILUPBiCGStab:  Solving for c, Initial residual = 0.000943685, Final residual = 1.05044e-14, No Iterations 3
Total mass = 220.298
Flux out = 2.21392e-37
Adaptive time = 3463.68
DILUPBiCGStab:  Solving for c, Initial residual = 0.000941724, Final residual = 9.8126e-15, No Iterations 3
Total mass = 220.931
Flux out = 3.41736e-37
Adaptive time = 3473.6
DILUPBiCGStab:  Solving for c, Initial residual = 0.000939775, Final residual = 1.00909e-14, No Iterations 3
Total mass = 221.564
Flux out = 5.26566e-37
Adaptive time = 3483.53
DILUPBiCGStab:  Solving for c, Initial residual = 0.000937838, Final residual = 1.07829e-14, No Iterations 3
Total mass = 222.197
Flux out = 8.09937e-37
Adaptive time = 3493.45
DILUPBiCGStab:  Solving for c, Initial residual = 0.000935916, Final residual = 1.16155e-14, No Iterations 3
Total mass = 222.83
Flux out = 1.24362e-36
Adaptive time = 3503.37
DILUPBiCGStab:  Solving for c, Initial residual = 0.000934004, Final residual = 1.2452e-14, No Iterations 3
Total mass = 223.463
Flux out = 1.9062e-36
Adaptive time = 3513.3
DILUPBiCGStab:  Solving for c, Initial residual = 0.000932102, Final residual = 1.32387e-14, No Iterations 3
Total mass = 224.096
Flux out = 2.91671e-36
Adaptive time = 3523.22
DILUPBiCGStab:  Solving for c, Initial residual = 0.000930214, Final residual = 1.39451e-14, No Iterations 3
Total mass = 224.729
Flux out = 4.45519e-36
Adaptive time = 3533.15
DILUPBiCGStab:  Solving for c, Initial residual = 0.000928337, Final residual = 1.45621e-14, No Iterations 3
Total mass = 225.362
Flux out = 6.79344e-36
Adaptive time = 3543.07
DILUPBiCGStab:  Solving for c, Initial residual = 0.000926471, Final residual = 1.50846e-14, No Iterations 3
Total mass = 225.995
Flux out = 1.03411e-35
Adaptive time = 3553
DILUPBiCGStab:  Solving for c, Initial residual = 0.000924618, Final residual = 1.55098e-14, No Iterations 3
Total mass = 226.628
Flux out = 1.57146e-35
Adaptive time = 3562.92
DILUPBiCGStab:  Solving for c, Initial residual = 0.000922775, Final residual = 1.58385e-14, No Iterations 3
Total mass = 227.261
Flux out = 2.38396e-35
Adaptive time = 3572.85
DILUPBiCGStab:  Solving for c, Initial residual = 0.000920945, Final residual = 1.60741e-14, No Iterations 3
Total mass = 227.894
Flux out = 3.61042e-35
Adaptive time = 3582.77
DILUPBiCGStab:  Solving for c, Initial residual = 0.000919124, Final residual = 1.62212e-14, No Iterations 3
Total mass = 228.527
Flux out = 5.45861e-35
Adaptive time = 3592.7
DILUPBiCGStab:  Solving for c, Initial residual = 0.000917315, Final residual = 9.94361e-11, No Iterations 2
Total mass = 229.16
Flux out = 8.23901e-35
Adaptive time = 3602.62
DILUPBiCGStab:  Solving for c, Initial residual = 0.000915518, Final residual = 9.83152e-11, No Iterations 2
Total mass = 229.793
Flux out = 1.24148e-34
Adaptive time = 3612.54
DILUPBiCGStab:  Solving for c, Initial residual = 0.000913731, Final residual = 9.74464e-11, No Iterations 2
Total mass = 230.426
Flux out = 1.86758e-34
Adaptive time = 3622.47
DILUPBiCGStab:  Solving for c, Initial residual = 0.000911954, Final residual = 9.68137e-11, No Iterations 2
Total mass = 231.059
Flux out = 2.80476e-34
Adaptive time = 3632.39
DILUPBiCGStab:  Solving for c, Initial residual = 0.000910191, Final residual = 9.64078e-11, No Iterations 2
Total mass = 231.692
Flux out = 4.20525e-34
Adaptive time = 3642.32
DILUPBiCGStab:  Solving for c, Initial residual = 0.000908435, Final residual = 9.62241e-11, No Iterations 2
Total mass = 232.324
Flux out = 6.29465e-34
Adaptive time = 3652.24
DILUPBiCGStab:  Solving for c, Initial residual = 0.000906691, Final residual = 9.62647e-11, No Iterations 2
Total mass = 232.957
Flux out = 9.40668e-34
Adaptive time = 3662.17
DILUPBiCGStab:  Solving for c, Initial residual = 0.000904959, Final residual = 9.6539e-11, No Iterations 2
Total mass = 233.59
Flux out = 1.40343e-33
Adaptive time = 3672.09
DILUPBiCGStab:  Solving for c, Initial residual = 0.000903234, Final residual = 9.70636e-11, No Iterations 2
Total mass = 234.223
Flux out = 2.09043e-33
Adaptive time = 3682.02
DILUPBiCGStab:  Solving for c, Initial residual = 0.000901522, Final residual = 9.78646e-11, No Iterations 2
Total mass = 234.856
Flux out = 3.10866e-33
Adaptive time = 3691.94
DILUPBiCGStab:  Solving for c, Initial residual = 0.00089982, Final residual = 9.89832e-11, No Iterations 2
Total mass = 235.489
Flux out = 4.61539e-33
Adaptive time = 3701.87
DILUPBiCGStab:  Solving for c, Initial residual = 0.000898128, Final residual = 1.20156e-14, No Iterations 3
Total mass = 236.122
Flux out = 6.84138e-33
Adaptive time = 3711.79
DILUPBiCGStab:  Solving for c, Initial residual = 0.000896446, Final residual = 1.12375e-14, No Iterations 3
Total mass = 236.755
Flux out = 1.01247e-32
Adaptive time = 3721.71
DILUPBiCGStab:  Solving for c, Initial residual = 0.000894774, Final residual = 1.04154e-14, No Iterations 3
Total mass = 237.388
Flux out = 1.49597e-32
Adaptive time = 3731.64
DILUPBiCGStab:  Solving for c, Initial residual = 0.000893112, Final residual = 9.5546e-15, No Iterations 3
Total mass = 238.021
Flux out = 2.20684e-32
Adaptive time = 3741.56
DILUPBiCGStab:  Solving for c, Initial residual = 0.00089146, Final residual = 8.67106e-15, No Iterations 3
Total mass = 238.654
Flux out = 3.25034e-32
Adaptive time = 3751.49
DILUPBiCGStab:  Solving for c, Initial residual = 0.000889816, Final residual = 7.79228e-15, No Iterations 3
Total mass = 239.287
Flux out = 4.7797e-32
Adaptive time = 3761.41
DILUPBiCGStab:  Solving for c, Initial residual = 0.000888184, Final residual = 6.9618e-15, No Iterations 3
Total mass = 239.92
Flux out = 7.01757e-32
Adaptive time = 3771.34
DILUPBiCGStab:  Solving for c, Initial residual = 0.000886562, Final residual = 6.27929e-15, No Iterations 3
Total mass = 240.553
Flux out = 1.02871e-31
Adaptive time = 3781.26
DILUPBiCGStab:  Solving for c, Initial residual = 0.000884947, Final residual = 5.91599e-15, No Iterations 3
Total mass = 241.186
Flux out = 1.50562e-31
Adaptive time = 3791.19
DILUPBiCGStab:  Solving for c, Initial residual = 0.000883343, Final residual = 6.19898e-15, No Iterations 3
Total mass = 241.819
Flux out = 2.20021e-31
Adaptive time = 3801.11
DILUPBiCGStab:  Solving for c, Initial residual = 0.00088175, Final residual = 7.28313e-15, No Iterations 3
Total mass = 242.452
Flux out = 3.21024e-31
Adaptive time = 3811.04
DILUPBiCGStab:  Solving for c, Initial residual = 0.000880163, Final residual = 8.44716e-15, No Iterations 3
Total mass = 243.085
Flux out = 4.67668e-31
Adaptive time = 3820.96
[...]
[3] 
[4] 
[4] 
[4] --> FOAM FATAL ERROR: 
[4] Concentration under the threshold
[4] 
[4] 
[4]     From function macroScalarTransport
[4]     in file macroScalarTransport.C at line 101.
[4] 
FOAM parallel run exiting
[4] 
[5] 
[5] 
[5] --> FOAM FATAL ERROR: 
[5] Concentration under the threshold
[5] 
[5] 
[5]     From function macroScalarTransport
[5]     in file macroScalarTransport.C at line 101.
[5] 
FOAM parallel run exiting
[5] 
[7] 
[7] 
[7] --> FOAM FATAL ERROR: 
[7] Concentration under the threshold
[7] 
[7] 
[7]     From function macroScalarTransport
[7]     in file macroScalarTransport.C at line 101.
[7] 
FOAM parallel run exiting
[7] 
[8] 
[8] 
[8] --> FOAM FATAL ERROR: 
[8] Concentration under the threshold
[8] 
[8] 
[8]     From function macroScalarTransport
[8]     in file macroScalarTransport.C at line 101.
[8] 
FOAM parallel run exiting
[8] 
[9] 
[9] 
[9] --> FOAM FATAL ERROR: 
[9] Concentration under the threshold
[9] 
[9] 
[9]     From function macroScalarTransport
[9]     in file macroScalarTransport.C at line 101.
[9] 
FOAM parallel run exiting
[9] 
[10] 
[10] 
[10] --> FOAM FATAL ERROR: 
[10] Concentration under the threshold
[10] 
[10] 
[10]     From function macroScalarTransport
[10]     in file macroScalarTransport.C at line 101.
[10] 
FOAM parallel run exiting
[10] 
[11] 
[11] 
[11] --> FOAM FATAL ERROR: 
[11] Concentration under the threshold
[11] 
[11] 
[11]     From function macroScalarTransport
[11]     in file macroScalarTransport.C at line 101.
[11] 
FOAM parallel run exiting
[11] 
[gercphd:22858] 11 more processes have sent help message help-mpi-api.txt / mpi-abort
[gercphd:22858] Set MCA parameter "orte_base_help_aggregate" to 0 to see all help / error messages
/*---------------------------------------------------------------------------*\
  =========                 |
  \\      /  F ield         | OpenFOAM: The Open Source CFD Toolbox
   \\    /   O peration     | Website:  https://openfoam.org
    \\  /    A nd           | Version:  8
     \\/     M anipulation  |
\*---------------------------------------------------------------------------*/
Build  : 8-1c9b5879390b
Exec   : postProcess -dict system/fieldMetricsDict -func fieldMetricsK -time 0 -parallel
Date   : Oct 21 2022
Time   : 22:59:52
Host   : "gercphd"
PID    : 9356
I/O    : uncollated
Case   : /data/pmxep5-8/PGSFlowTransport/tutorials/RESULTS/Herten/varMecDisp
nProcs : 12
Slaves : 
11
(
"gercphd.9357"
"gercphd.9358"
"gercphd.9359"
"gercphd.9360"
"gercphd.9361"
"gercphd.9362"
"gercphd.9363"
"gercphd.9364"
"gercphd.9365"
"gercphd.9366"
"gercphd.9367"
)

Pstream initialized with:
    floatTransfer      : 0
    nProcsSimpleSum    : 0
    commsType          : nonBlocking
    polling iterations : 0
sigFpe : Enabling floating point exception trapping (FOAM_SIGFPE).
fileModificationChecking : Monitoring run-time modified files using timeStampMaster (fileModificationSkew 10)
allowSystemOperations : Allowing user-supplied system call operations

// * * * * * * * * * * * * * * * * * * * * * * * * * * * * * * * * * * * * * //
Create time

Create mesh for time = 0

--> FOAM Warning : 
    From function static bool Foam::functionObjectList::readFunctionObject(const Foam::string&, Foam::dictionary&, const Foam::string&, Foam::HashSet<>&, const Foam::word&)
    in file db/functionObjects/functionObjectList/functionObjectList.C at line 311
    Cannot find functionObject file fieldMetricsK
Time = 0

Reading fields:

Executing functionObjects
There is no field K
There is no field c

End

Finalising parallel run
/*---------------------------------------------------------------------------*\
  =========                 |
  \\      /  F ield         | OpenFOAM: The Open Source CFD Toolbox
   \\    /   O peration     | Website:  https://openfoam.org
    \\  /    A nd           | Version:  8
     \\/     M anipulation  |
\*---------------------------------------------------------------------------*/
Build  : 8-1c9b5879390b
Exec   : postProcess -dict system/fieldMetricsDict -func fieldMetricsC -field c -parallel
Date   : Oct 21 2022
Time   : 22:59:56
Host   : "gercphd"
PID    : 9397
I/O    : uncollated
Case   : /data/pmxep5-8/PGSFlowTransport/tutorials/RESULTS/Herten/varMecDisp
nProcs : 12
Slaves : 
11
(
"gercphd.9398"
"gercphd.9399"
"gercphd.9400"
"gercphd.9401"
"gercphd.9402"
"gercphd.9403"
"gercphd.9404"
"gercphd.9405"
"gercphd.9406"
"gercphd.9407"
"gercphd.9408"
)

Pstream initialized with:
    floatTransfer      : 0
    nProcsSimpleSum    : 0
    commsType          : nonBlocking
    polling iterations : 0
sigFpe : Enabling floating point exception trapping (FOAM_SIGFPE).
fileModificationChecking : Monitoring run-time modified files using timeStampMaster (fileModificationSkew 10)
allowSystemOperations : Allowing user-supplied system call operations

// * * * * * * * * * * * * * * * * * * * * * * * * * * * * * * * * * * * * * //
Create time

Create mesh for time = 0

--> FOAM Warning : 
    From function static bool Foam::functionObjectList::readFunctionObject(const Foam::string&, Foam::dictionary&, const Foam::string&, Foam::HashSet<>&, const Foam::word&)
    in file db/functionObjects/functionObjectList/functionObjectList.C at line 311
    Cannot find functionObject file fieldMetricsC
Time = 0

Reading fields:
    volScalarFields: c

Executing functionObjects
There is no field K
Computing meanAndVariance on c
Time=0 Mean=0 Var=0
meanAndVariance written to "/data/pmxep5-8/PGSFlowTransport/tutorials/RESULTS/Herten/varMecDisp/processor0/../postProcessing/fieldMetrics/0"
Computing meanAndVariance of position wrt field c
Time=0 MeanConcX=0 VarConcX=0 MeanConcY=0 VarConcY=0 MeanConcZ=0 VarConcZ=0
meanAndVarianceConc written to "/data/pmxep5-8/PGSFlowTransport/tutorials/RESULTS/Herten/varMecDisp/processor0/../postProcessing/fieldMetrics/0"

Time = 300

Reading fields:

Executing functionObjects
There is no field K
There is no field c

Time = 784.041

Reading fields:
    volScalarFields: c

Executing functionObjects
There is no field K
Computing meanAndVariance on c
Time=784.041 Mean=0.0446735 Var=0.03678
meanAndVariance written to "/data/pmxep5-8/PGSFlowTransport/tutorials/RESULTS/Herten/varMecDisp/processor0/../postProcessing/fieldMetrics/784.041"
Computing meanAndVariance of position wrt field c
Time=784.041 MeanConcX=0.630242 VarConcX=0.209571 MeanConcY=5.00104 VarConcY=8.40466 MeanConcZ=3.96782 VarConcZ=5.9611
meanAndVarianceConc written to "/data/pmxep5-8/PGSFlowTransport/tutorials/RESULTS/Herten/varMecDisp/processor0/../postProcessing/fieldMetrics/784.041"

Time = 1568.08

Reading fields:
    volScalarFields: c

Executing functionObjects
There is no field K
Computing meanAndVariance on c
Time=1568.08 Mean=0.0893194 Var=0.0723142
meanAndVariance written to "/data/pmxep5-8/PGSFlowTransport/tutorials/RESULTS/Herten/varMecDisp/processor0/../postProcessing/fieldMetrics/1568.08"
Computing meanAndVariance of position wrt field c
Time=1568.08 MeanConcX=1.23485 VarConcX=0.784223 MeanConcY=4.99738 VarConcY=8.38497 MeanConcZ=3.97005 VarConcZ=5.97102
meanAndVarianceConc written to "/data/pmxep5-8/PGSFlowTransport/tutorials/RESULTS/Herten/varMecDisp/processor0/../postProcessing/fieldMetrics/1568.08"

Time = 2352.12

Reading fields:
    volScalarFields: c

Executing functionObjects
There is no field K
Computing meanAndVariance on c
Time=2352.12 Mean=0.133965 Var=0.104051
meanAndVariance written to "/data/pmxep5-8/PGSFlowTransport/tutorials/RESULTS/Herten/varMecDisp/processor0/../postProcessing/fieldMetrics/2352.12"
Computing meanAndVariance of position wrt field c
Time=2352.12 MeanConcX=1.84061 VarConcX=1.72881 MeanConcY=4.99633 VarConcY=8.37723 MeanConcZ=3.97008 VarConcZ=5.96815
meanAndVarianceConc written to "/data/pmxep5-8/PGSFlowTransport/tutorials/RESULTS/Herten/varMecDisp/processor0/../postProcessing/fieldMetrics/2352.12"

Time = 3136.17

Reading fields:
    volScalarFields: c

Executing functionObjects
There is no field K
Computing meanAndVariance on c
Time=3136.17 Mean=0.178611 Var=0.13172
meanAndVariance written to "/data/pmxep5-8/PGSFlowTransport/tutorials/RESULTS/Herten/varMecDisp/processor0/../postProcessing/fieldMetrics/3136.17"
Computing meanAndVariance of position wrt field c
Time=3136.17 MeanConcX=2.43876 VarConcX=2.99321 MeanConcY=4.99786 VarConcY=8.37455 MeanConcZ=3.96642 VarConcZ=5.95005
meanAndVarianceConc written to "/data/pmxep5-8/PGSFlowTransport/tutorials/RESULTS/Herten/varMecDisp/processor0/../postProcessing/fieldMetrics/3136.17"

Time = 3920.21

Reading fields:
    volScalarFields: c

Executing functionObjects
There is no field K
Computing meanAndVariance on c
Time=3920.21 Mean=0.223256 Var=0.155323
meanAndVariance written to "/data/pmxep5-8/PGSFlowTransport/tutorials/RESULTS/Herten/varMecDisp/processor0/../postProcessing/fieldMetrics/3920.21"
Computing meanAndVariance of position wrt field c
Time=3920.21 MeanConcX=3.02793 VarConcX=4.54483 MeanConcY=5.00047 VarConcY=8.37425 MeanConcZ=3.96213 VarConcZ=5.93217
meanAndVarianceConc written to "/data/pmxep5-8/PGSFlowTransport/tutorials/RESULTS/Herten/varMecDisp/processor0/../postProcessing/fieldMetrics/3920.21"

Time = 4704.25

Reading fields:
    volScalarFields: c

Executing functionObjects
There is no field K
Computing meanAndVariance on c
Time=4704.25 Mean=0.267902 Var=0.174877
meanAndVariance written to "/data/pmxep5-8/PGSFlowTransport/tutorials/RESULTS/Herten/varMecDisp/processor0/../postProcessing/fieldMetrics/4704.25"
Computing meanAndVariance of position wrt field c
Time=4704.25 MeanConcX=3.6126 VarConcX=6.39444 MeanConcY=5.00372 VarConcY=8.37701 MeanConcZ=3.95872 VarConcZ=5.9204
meanAndVarianceConc written to "/data/pmxep5-8/PGSFlowTransport/tutorials/RESULTS/Herten/varMecDisp/processor0/../postProcessing/fieldMetrics/4704.25"

Time = 5488.29

Reading fields:
    volScalarFields: c

Executing functionObjects
There is no field K
Computing meanAndVariance on c
Time=5488.29 Mean=0.312547 Var=0.190365
meanAndVariance written to "/data/pmxep5-8/PGSFlowTransport/tutorials/RESULTS/Herten/varMecDisp/processor0/../postProcessing/fieldMetrics/5488.29"
Computing meanAndVariance of position wrt field c
Time=5488.29 MeanConcX=4.19591 VarConcX=8.55591 MeanConcY=5.00771 VarConcY=8.38139 MeanConcZ=3.95656 VarConcZ=5.91394
meanAndVarianceConc written to "/data/pmxep5-8/PGSFlowTransport/tutorials/RESULTS/Herten/varMecDisp/processor0/../postProcessing/fieldMetrics/5488.29"

Time = 6272.33

Reading fields:
    volScalarFields: c

Executing functionObjects
There is no field K
Computing meanAndVariance on c
Time=6272.33 Mean=0.357193 Var=0.201779
meanAndVariance written to "/data/pmxep5-8/PGSFlowTransport/tutorials/RESULTS/Herten/varMecDisp/processor0/../postProcessing/fieldMetrics/6272.33"
Computing meanAndVariance of position wrt field c
Time=6272.33 MeanConcX=4.77995 VarConcX=11.0436 MeanConcY=5.01215 VarConcY=8.38637 MeanConcZ=3.95515 VarConcZ=5.91019
meanAndVarianceConc written to "/data/pmxep5-8/PGSFlowTransport/tutorials/RESULTS/Herten/varMecDisp/processor0/../postProcessing/fieldMetrics/6272.33"

Time = 7066.3

Reading fields:
    volScalarFields: c

Executing functionObjects
There is no field K
Computing meanAndVariance on c
Time=7066.3 Mean=0.402383 Var=0.209196
meanAndVariance written to "/data/pmxep5-8/PGSFlowTransport/tutorials/RESULTS/Herten/varMecDisp/processor0/../postProcessing/fieldMetrics/7066.3"
Computing meanAndVariance of position wrt field c
Time=7066.3 MeanConcX=5.37296 VarConcX=13.8953 MeanConcY=5.01696 VarConcY=8.39284 MeanConcZ=3.95383 VarConcZ=5.9066
meanAndVarianceConc written to "/data/pmxep5-8/PGSFlowTransport/tutorials/RESULTS/Herten/varMecDisp/processor0/../postProcessing/fieldMetrics/7066.3"

Time = 7880.11

Reading fields:
    volScalarFields: c

Executing functionObjects
There is no field K
Computing meanAndVariance on c
Time=7880.11 Mean=0.44708 Var=0.213674
meanAndVariance written to "/data/pmxep5-8/PGSFlowTransport/tutorials/RESULTS/Herten/varMecDisp/processor0/../postProcessing/fieldMetrics/7880.11"
Computing meanAndVariance of position wrt field c
Time=7880.11 MeanConcX=5.9461 VarConcX=16.8346 MeanConcY=5.02315 VarConcY=8.40271 MeanConcZ=3.94457 VarConcZ=5.90279
meanAndVarianceConc written to "/data/pmxep5-8/PGSFlowTransport/tutorials/RESULTS/Herten/varMecDisp/processor0/../postProcessing/fieldMetrics/7880.11"

Time = 8981.74

Reading fields:
    volScalarFields: c

Executing functionObjects
There is no field K
Computing meanAndVariance on c
Time=8981.74 Mean=0.491894 Var=0.217334
meanAndVariance written to "/data/pmxep5-8/PGSFlowTransport/tutorials/RESULTS/Herten/varMecDisp/processor0/../postProcessing/fieldMetrics/8981.74"
Computing meanAndVariance of position wrt field c
Time=8981.74 MeanConcX=6.41329 VarConcX=18.7388 MeanConcY=5.0396 VarConcY=8.42371 MeanConcZ=3.86329 VarConcZ=5.89748
meanAndVarianceConc written to "/data/pmxep5-8/PGSFlowTransport/tutorials/RESULTS/Herten/varMecDisp/processor0/../postProcessing/fieldMetrics/8981.74"

Time = 10430.7

Reading fields:
    volScalarFields: c

Executing functionObjects
There is no field K
Computing meanAndVariance on c
Time=10430.7 Mean=0.536551 Var=0.214302
meanAndVariance written to "/data/pmxep5-8/PGSFlowTransport/tutorials/RESULTS/Herten/varMecDisp/processor0/../postProcessing/fieldMetrics/10430.7"
Computing meanAndVariance of position wrt field c
Time=10430.7 MeanConcX=6.8314 VarConcX=20.2457 MeanConcY=5.06019 VarConcY=8.45499 MeanConcZ=3.7317 VarConcZ=5.86558
meanAndVarianceConc written to "/data/pmxep5-8/PGSFlowTransport/tutorials/RESULTS/Herten/varMecDisp/processor0/../postProcessing/fieldMetrics/10430.7"

Time = 13150.1

Reading fields:
    volScalarFields: c

Executing functionObjects
There is no field K
Computing meanAndVariance on c
Time=13150.1 Mean=0.581283 Var=0.214729
meanAndVariance written to "/data/pmxep5-8/PGSFlowTransport/tutorials/RESULTS/Herten/varMecDisp/processor0/../postProcessing/fieldMetrics/13150.1"
Computing meanAndVariance of position wrt field c
Time=13150.1 MeanConcX=7.19153 VarConcX=21.5697 MeanConcY=5.08586 VarConcY=8.4821 MeanConcZ=3.67173 VarConcZ=5.68336
meanAndVarianceConc written to "/data/pmxep5-8/PGSFlowTransport/tutorials/RESULTS/Herten/varMecDisp/processor0/../postProcessing/fieldMetrics/13150.1"

Time = 23749.5

Reading fields:
    volScalarFields: c

Executing functionObjects
There is no field K
Computing meanAndVariance on c
Time=23749.5 Mean=0.625934 Var=0.208841
meanAndVariance written to "/data/pmxep5-8/PGSFlowTransport/tutorials/RESULTS/Herten/varMecDisp/processor0/../postProcessing/fieldMetrics/23749.5"
Computing meanAndVariance of position wrt field c
Time=23749.5 MeanConcX=7.29136 VarConcX=21.7547 MeanConcY=5.10625 VarConcY=8.46185 MeanConcZ=3.66154 VarConcZ=5.43459
meanAndVarianceConc written to "/data/pmxep5-8/PGSFlowTransport/tutorials/RESULTS/Herten/varMecDisp/processor0/../postProcessing/fieldMetrics/23749.5"

Time = 42993.3

Reading fields:
    volScalarFields: c

Executing functionObjects
There is no field K
Computing meanAndVariance on c
Time=42993.3 Mean=0.67059 Var=0.193428
meanAndVariance written to "/data/pmxep5-8/PGSFlowTransport/tutorials/RESULTS/Herten/varMecDisp/processor0/../postProcessing/fieldMetrics/42993.3"
Computing meanAndVariance of position wrt field c
Time=42993.3 MeanConcX=7.29684 VarConcX=21.3682 MeanConcY=5.10775 VarConcY=8.43326 MeanConcZ=3.6669 VarConcZ=5.19802
meanAndVarianceConc written to "/data/pmxep5-8/PGSFlowTransport/tutorials/RESULTS/Herten/varMecDisp/processor0/../postProcessing/fieldMetrics/42993.3"

Time = 67556.6

Reading fields:
    volScalarFields: c

Executing functionObjects
There is no field K
Computing meanAndVariance on c
Time=67556.6 Mean=0.715236 Var=0.173982
meanAndVariance written to "/data/pmxep5-8/PGSFlowTransport/tutorials/RESULTS/Herten/varMecDisp/processor0/../postProcessing/fieldMetrics/67556.6"
Computing meanAndVariance of position wrt field c
Time=67556.6 MeanConcX=7.31829 VarConcX=20.9224 MeanConcY=5.09705 VarConcY=8.4132 MeanConcZ=3.68052 VarConcZ=4.98132
meanAndVarianceConc written to "/data/pmxep5-8/PGSFlowTransport/tutorials/RESULTS/Herten/varMecDisp/processor0/../postProcessing/fieldMetrics/67556.6"

Time = 99414.5

Reading fields:
    volScalarFields: c

Executing functionObjects
There is no field K
Computing meanAndVariance on c
Time=99414.5 Mean=0.759882 Var=0.153594
meanAndVariance written to "/data/pmxep5-8/PGSFlowTransport/tutorials/RESULTS/Herten/varMecDisp/processor0/../postProcessing/fieldMetrics/99414.5"
Computing meanAndVariance of position wrt field c
Time=99414.5 MeanConcX=7.36471 VarConcX=20.6125 MeanConcY=5.075 VarConcY=8.37895 MeanConcZ=3.68864 VarConcZ=4.79045
meanAndVarianceConc written to "/data/pmxep5-8/PGSFlowTransport/tutorials/RESULTS/Herten/varMecDisp/processor0/../postProcessing/fieldMetrics/99414.5"

Time = 100000

Reading fields:
    volScalarFields: c

Executing functionObjects
There is no field K
Computing meanAndVariance on c
Time=100000 Mean=0.760571 Var=0.153269
meanAndVariance written to "/data/pmxep5-8/PGSFlowTransport/tutorials/RESULTS/Herten/varMecDisp/processor0/../postProcessing/fieldMetrics/100000"
Computing meanAndVariance of position wrt field c
Time=100000 MeanConcX=7.36561 VarConcX=20.6091 MeanConcY=5.07467 VarConcY=8.37818 MeanConcZ=3.68866 VarConcZ=4.78772
meanAndVarianceConc written to "/data/pmxep5-8/PGSFlowTransport/tutorials/RESULTS/Herten/varMecDisp/processor0/../postProcessing/fieldMetrics/100000"

Time = 147042

Reading fields:
    volScalarFields: c

Executing functionObjects
There is no field K
Computing meanAndVariance on c
Time=147042 Mean=0.804529 Var=0.131045
meanAndVariance written to "/data/pmxep5-8/PGSFlowTransport/tutorials/RESULTS/Herten/varMecDisp/processor0/../postProcessing/fieldMetrics/147042"
Computing meanAndVariance of position wrt field c
Time=147042 MeanConcX=7.43262 VarConcX=20.4795 MeanConcY=5.06006 VarConcY=8.32316 MeanConcZ=3.67988 VarConcZ=4.62522
meanAndVarianceConc written to "/data/pmxep5-8/PGSFlowTransport/tutorials/RESULTS/Herten/varMecDisp/processor0/../postProcessing/fieldMetrics/147042"

Time = 200000

Reading fields:
    volScalarFields: c

Executing functionObjects
There is no field K
Computing meanAndVariance on c
Time=200000 Mean=0.837345 Var=0.11186
meanAndVariance written to "/data/pmxep5-8/PGSFlowTransport/tutorials/RESULTS/Herten/varMecDisp/processor0/../postProcessing/fieldMetrics/200000"
Computing meanAndVariance of position wrt field c
Time=200000 MeanConcX=7.49426 VarConcX=20.4863 MeanConcY=5.05688 VarConcY=8.29051 MeanConcZ=3.66075 VarConcZ=4.51648
meanAndVarianceConc written to "/data/pmxep5-8/PGSFlowTransport/tutorials/RESULTS/Herten/varMecDisp/processor0/../postProcessing/fieldMetrics/200000"

Time = 224256

Reading fields:
    volScalarFields: c

Executing functionObjects
There is no field K
Computing meanAndVariance on c
Time=224256 Mean=0.849173 Var=0.104403
meanAndVariance written to "/data/pmxep5-8/PGSFlowTransport/tutorials/RESULTS/Herten/varMecDisp/processor0/../postProcessing/fieldMetrics/224256"
Computing meanAndVariance of position wrt field c
Time=224256 MeanConcX=7.51945 VarConcX=20.507 MeanConcY=5.05618 VarConcY=8.2831 MeanConcZ=3.65216 VarConcZ=4.47905
meanAndVarianceConc written to "/data/pmxep5-8/PGSFlowTransport/tutorials/RESULTS/Herten/varMecDisp/processor0/../postProcessing/fieldMetrics/224256"

Time = 224990

Reading fields:
    volScalarFields: c

Executing functionObjects
There is no field K
Computing meanAndVariance on c
Time=224990 Mean=0.849508 Var=0.104188
meanAndVariance written to "/data/pmxep5-8/PGSFlowTransport/tutorials/RESULTS/Herten/varMecDisp/processor0/../postProcessing/fieldMetrics/224990"
Computing meanAndVariance of position wrt field c
Time=224990 MeanConcX=7.52019 VarConcX=20.5078 MeanConcY=5.05616 VarConcY=8.28292 MeanConcZ=3.6519 VarConcZ=4.478
meanAndVarianceConc written to "/data/pmxep5-8/PGSFlowTransport/tutorials/RESULTS/Herten/varMecDisp/processor0/../postProcessing/fieldMetrics/224990"

End

Finalising parallel run
