/*---------------------------------------------------------------------------*\
  =========                 |
  \\      /  F ield         | OpenFOAM: The Open Source CFD Toolbox
   \\    /   O peration     | Website:  https://openfoam.org
    \\  /    A nd           | Version:  8
     \\/     M anipulation  |
\*---------------------------------------------------------------------------*/
Build  : 8
Exec   : blockMesh
Date   : Nov 19 2022
Time   : 07:24:56
Host   : "compute039.int.augusta.nottingham.ac.uk"
PID    : 2343
I/O    : uncollated
Case   : /gpfs01/home/pmxep5/PGSFlowTransport/tutorials/RESULTS/Herten/varMecDispTran/varMecDisp1e-2alphaT
nProcs : 1
sigFpe : Enabling floating point exception trapping (FOAM_SIGFPE).
fileModificationChecking : Monitoring run-time modified files using timeStampMaster (fileModificationSkew 10)
allowSystemOperations : Allowing user-supplied system call operations

// * * * * * * * * * * * * * * * * * * * * * * * * * * * * * * * * * * * * * //
Create time

Deleting polyMesh directory
    "/gpfs01/home/pmxep5/PGSFlowTransport/tutorials/RESULTS/Herten/varMecDispTran/varMecDisp1e-2alphaT/constant/polyMesh"
Creating block mesh from
    "system/blockMeshDict"
Creating block edges
No non-planar block faces defined
Creating topology blocks
Creating topology patches

Creating block mesh topology

Check topology

	Basic statistics
		Number of internal faces : 0
		Number of boundary faces : 6
		Number of defined boundary faces : 6
		Number of undefined boundary faces : 0
	Checking patch -> block consistency

Creating block offsets
Creating merge list .

Creating polyMesh from blockMesh
Creating patches
Creating cells
Creating points with scale 1
    Block 0 cell size :
        i : 0.05 .. 0.05
        j : 0.05 .. 0.05
        k : 0.05 .. 0.05

Writing polyMesh
----------------
Mesh Information
----------------
  boundingBox: (0 0 0) (16 10 7)
  nPoints: 9097461
  nCells: 8960000
  nFaces: 27016800
  nInternalFaces: 26743200
----------------
Patches
----------------
  patch 0 (start: 26743200 size: 28000) name: inlet
  patch 1 (start: 26771200 size: 28000) name: outlet
  patch 2 (start: 26799200 size: 64000) name: lowerWall
  patch 3 (start: 26863200 size: 64000) name: upperWall
  patch 4 (start: 26927200 size: 89600) name: frontAndBack

End

/*---------------------------------------------------------------------------*\
  =========                 |
  \\      /  F ield         | OpenFOAM: The Open Source CFD Toolbox
   \\    /   O peration     | Website:  https://openfoam.org
    \\  /    A nd           | Version:  8
     \\/     M anipulation  |
\*---------------------------------------------------------------------------*/
Build  : 8
Exec   : decomposePar
Date   : Nov 19 2022
Time   : 07:25:46
Host   : "compute039.int.augusta.nottingham.ac.uk"
PID    : 2362
I/O    : uncollated
Case   : /gpfs01/home/pmxep5/PGSFlowTransport/tutorials/RESULTS/Herten/varMecDispTran/varMecDisp1e-2alphaT
nProcs : 1
sigFpe : Enabling floating point exception trapping (FOAM_SIGFPE).
fileModificationChecking : Monitoring run-time modified files using timeStampMaster (fileModificationSkew 10)
allowSystemOperations : Allowing user-supplied system call operations

// * * * * * * * * * * * * * * * * * * * * * * * * * * * * * * * * * * * * * //
Create time



Decomposing mesh region0

Create mesh

Calculating distribution of cells
Selecting decompositionMethod simple

Finished decomposition in 5.38 s

Calculating original mesh data

Distributing cells to processors

Distributing faces to processors

Distributing points to processors

Constructing processor meshes

Processor 0
    Number of cells = 94000
    Number of faces shared with processor 1 = 2350
    Number of faces shared with processor 8 = 1880
    Number of faces shared with processor 32 = 2000
    Number of processor patches = 3
    Number of processor faces = 6230
    Number of boundary faces = 6230

Processor 1
    Number of cells = 94000
    Number of faces shared with processor 0 = 2350
    Number of faces shared with processor 2 = 2350
    Number of faces shared with processor 9 = 1880
    Number of faces shared with processor 33 = 2000
    Number of processor patches = 4
    Number of processor faces = 8580
    Number of boundary faces = 3880

Processor 2
    Number of cells = 94000
    Number of faces shared with processor 1 = 2350
    Number of faces shared with processor 3 = 2350
    Number of faces shared with processor 10 = 1880
    Number of faces shared with processor 34 = 2000
    Number of processor patches = 4
    Number of processor faces = 8580
    Number of boundary faces = 3880

Processor 3
    Number of cells = 94000
    Number of faces shared with processor 2 = 2350
    Number of faces shared with processor 4 = 2350
    Number of faces shared with processor 11 = 1880
    Number of faces shared with processor 35 = 2000
    Number of processor patches = 4
    Number of processor faces = 8580
    Number of boundary faces = 3880

Processor 4
    Number of cells = 94000
    Number of faces shared with processor 3 = 2350
    Number of faces shared with processor 5 = 2350
    Number of faces shared with processor 12 = 1880
    Number of faces shared with processor 36 = 2000
    Number of processor patches = 4
    Number of processor faces = 8580
    Number of boundary faces = 3880

Processor 5
    Number of cells = 94000
    Number of faces shared with processor 4 = 2350
    Number of faces shared with processor 6 = 2350
    Number of faces shared with processor 13 = 1880
    Number of faces shared with processor 37 = 2000
    Number of processor patches = 4
    Number of processor faces = 8580
    Number of boundary faces = 3880

Processor 6
    Number of cells = 93864
    Number of faces shared with processor 5 = 2350
    Number of faces shared with processor 7 = 2332
    Number of faces shared with processor 14 = 1863
    Number of faces shared with processor 38 = 2032
    Number of faces shared with processor 39 = 2
    Number of faces shared with processor 46 = 1
    Number of processor patches = 6
    Number of processor faces = 8580
    Number of boundary faces = 3880

Processor 7
    Number of cells = 92528
    Number of faces shared with processor 6 = 2332
    Number of faces shared with processor 15 = 1840
    Number of faces shared with processor 39 = 2064
    Number of processor patches = 3
    Number of processor faces = 6236
    Number of boundary faces = 6172

Processor 8
    Number of cells = 94000
    Number of faces shared with processor 0 = 1880
    Number of faces shared with processor 9 = 2350
    Number of faces shared with processor 16 = 1880
    Number of faces shared with processor 40 = 2000
    Number of processor patches = 4
    Number of processor faces = 8110
    Number of boundary faces = 4350

Processor 9
    Number of cells = 94000
    Number of faces shared with processor 1 = 1880
    Number of faces shared with processor 8 = 2350
    Number of faces shared with processor 10 = 2350
    Number of faces shared with processor 17 = 1880
    Number of faces shared with processor 41 = 2000
    Number of processor patches = 5
    Number of processor faces = 10460
    Number of boundary faces = 2000

Processor 10
    Number of cells = 94000
    Number of faces shared with processor 2 = 1880
    Number of faces shared with processor 9 = 2350
    Number of faces shared with processor 11 = 2350
    Number of faces shared with processor 18 = 1880
    Number of faces shared with processor 42 = 2000
    Number of processor patches = 5
    Number of processor faces = 10460
    Number of boundary faces = 2000

Processor 11
    Number of cells = 94000
    Number of faces shared with processor 3 = 1880
    Number of faces shared with processor 10 = 2350
    Number of faces shared with processor 12 = 2350
    Number of faces shared with processor 19 = 1880
    Number of faces shared with processor 43 = 2000
    Number of processor patches = 5
    Number of processor faces = 10460
    Number of boundary faces = 2000

Processor 12
    Number of cells = 94000
    Number of faces shared with processor 4 = 1880
    Number of faces shared with processor 11 = 2350
    Number of faces shared with processor 13 = 2350
    Number of faces shared with processor 20 = 1880
    Number of faces shared with processor 44 = 2000
    Number of processor patches = 5
    Number of processor faces = 10460
    Number of boundary faces = 2000

Processor 13
    Number of cells = 93649
    Number of faces shared with processor 5 = 1880
    Number of faces shared with processor 12 = 2350
    Number of faces shared with processor 14 = 2323
    Number of faces shared with processor 21 = 1853
    Number of faces shared with processor 45 = 2052
    Number of faces shared with processor 46 = 1
    Number of faces shared with processor 53 = 1
    Number of processor patches = 7
    Number of processor faces = 10460
    Number of boundary faces = 2000

Processor 14
    Number of cells = 92276
    Number of faces shared with processor 6 = 1863
    Number of faces shared with processor 13 = 2323
    Number of faces shared with processor 15 = 2300
    Number of faces shared with processor 22 = 1840
    Number of faces shared with processor 46 = 2046
    Number of processor patches = 5
    Number of processor faces = 10372
    Number of boundary faces = 2000

Processor 15
    Number of cells = 92000
    Number of faces shared with processor 7 = 1840
    Number of faces shared with processor 14 = 2300
    Number of faces shared with processor 23 = 1840
    Number of faces shared with processor 47 = 2000
    Number of processor patches = 4
    Number of processor faces = 7980
    Number of boundary faces = 4300

Processor 16
    Number of cells = 94000
    Number of faces shared with processor 8 = 1880
    Number of faces shared with processor 17 = 2350
    Number of faces shared with processor 24 = 1880
    Number of faces shared with processor 48 = 2000
    Number of processor patches = 4
    Number of processor faces = 8110
    Number of boundary faces = 4350

Processor 17
    Number of cells = 94000
    Number of faces shared with processor 9 = 1880
    Number of faces shared with processor 16 = 2350
    Number of faces shared with processor 18 = 2350
    Number of faces shared with processor 25 = 1880
    Number of faces shared with processor 49 = 2000
    Number of processor patches = 5
    Number of processor faces = 10460
    Number of boundary faces = 2000

Processor 18
    Number of cells = 94000
    Number of faces shared with processor 10 = 1880
    Number of faces shared with processor 17 = 2350
    Number of faces shared with processor 19 = 2350
    Number of faces shared with processor 26 = 1880
    Number of faces shared with processor 50 = 2000
    Number of processor patches = 5
    Number of processor faces = 10460
    Number of boundary faces = 2000

Processor 19
    Number of cells = 94000
    Number of faces shared with processor 11 = 1880
    Number of faces shared with processor 18 = 2350
    Number of faces shared with processor 20 = 2350
    Number of faces shared with processor 27 = 1880
    Number of faces shared with processor 51 = 2000
    Number of processor patches = 5
    Number of processor faces = 10460
    Number of boundary faces = 2000

Processor 20
    Number of cells = 93334
    Number of faces shared with processor 12 = 1880
    Number of faces shared with processor 19 = 2350
    Number of faces shared with processor 21 = 2313
    Number of faces shared with processor 28 = 1843
    Number of faces shared with processor 52 = 2072
    Number of faces shared with processor 53 = 1
    Number of faces shared with processor 60 = 1
    Number of processor patches = 7
    Number of processor faces = 10460
    Number of boundary faces = 2000

Processor 21
    Number of cells = 92091
    Number of faces shared with processor 13 = 1853
    Number of faces shared with processor 20 = 2313
    Number of faces shared with processor 22 = 2300
    Number of faces shared with processor 29 = 1840
    Number of faces shared with processor 53 = 2026
    Number of processor patches = 5
    Number of processor faces = 10332
    Number of boundary faces = 2000

Processor 22
    Number of cells = 92000
    Number of faces shared with processor 14 = 1840
    Number of faces shared with processor 21 = 2300
    Number of faces shared with processor 23 = 2300
    Number of faces shared with processor 30 = 1840
    Number of faces shared with processor 54 = 2000
    Number of processor patches = 5
    Number of processor faces = 10280
    Number of boundary faces = 2000

Processor 23
    Number of cells = 92000
    Number of faces shared with processor 15 = 1840
    Number of faces shared with processor 22 = 2300
    Number of faces shared with processor 31 = 1840
    Number of faces shared with processor 55 = 2000
    Number of processor patches = 4
    Number of processor faces = 7980
    Number of boundary faces = 4300

Processor 24
    Number of cells = 94000
    Number of faces shared with processor 16 = 1880
    Number of faces shared with processor 25 = 2350
    Number of faces shared with processor 56 = 2000
    Number of processor patches = 3
    Number of processor faces = 6230
    Number of boundary faces = 6230

Processor 25
    Number of cells = 94000
    Number of faces shared with processor 17 = 1880
    Number of faces shared with processor 24 = 2350
    Number of faces shared with processor 26 = 2350
    Number of faces shared with processor 57 = 2000
    Number of processor patches = 4
    Number of processor faces = 8580
    Number of boundary faces = 3880

Processor 26
    Number of cells = 93979
    Number of faces shared with processor 18 = 1880
    Number of faces shared with processor 25 = 2350
    Number of faces shared with processor 27 = 2343
    Number of faces shared with processor 58 = 2012
    Number of faces shared with processor 59 = 1
    Number of processor patches = 5
    Number of processor faces = 8586
    Number of boundary faces = 3874

Processor 27
    Number of cells = 92940
    Number of faces shared with processor 19 = 1880
    Number of faces shared with processor 26 = 2343
    Number of faces shared with processor 28 = 2303
    Number of faces shared with processor 59 = 2079
    Number of faces shared with processor 60 = 1
    Number of processor patches = 5
    Number of processor faces = 8606
    Number of boundary faces = 3840

Processor 28
    Number of cells = 92006
    Number of faces shared with processor 20 = 1843
    Number of faces shared with processor 27 = 2303
    Number of faces shared with processor 29 = 2300
    Number of faces shared with processor 60 = 2006
    Number of processor patches = 4
    Number of processor faces = 8452
    Number of boundary faces = 3840

Processor 29
    Number of cells = 92000
    Number of faces shared with processor 21 = 1840
    Number of faces shared with processor 28 = 2300
    Number of faces shared with processor 30 = 2300
    Number of faces shared with processor 61 = 2000
    Number of processor patches = 4
    Number of processor faces = 8440
    Number of boundary faces = 3840

Processor 30
    Number of cells = 92000
    Number of faces shared with processor 22 = 1840
    Number of faces shared with processor 29 = 2300
    Number of faces shared with processor 31 = 2300
    Number of faces shared with processor 62 = 2000
    Number of processor patches = 4
    Number of processor faces = 8440
    Number of boundary faces = 3840

Processor 31
    Number of cells = 92000
    Number of faces shared with processor 23 = 1840
    Number of faces shared with processor 30 = 2300
    Number of faces shared with processor 63 = 2000
    Number of processor patches = 3
    Number of processor faces = 6140
    Number of boundary faces = 6140

Processor 32
    Number of cells = 94000
    Number of faces shared with processor 0 = 2000
    Number of faces shared with processor 33 = 2350
    Number of faces shared with processor 40 = 1880
    Number of faces shared with processor 64 = 2000
    Number of processor patches = 4
    Number of processor faces = 8230
    Number of boundary faces = 4230

Processor 33
    Number of cells = 94000
    Number of faces shared with processor 1 = 2000
    Number of faces shared with processor 32 = 2350
    Number of faces shared with processor 34 = 2350
    Number of faces shared with processor 41 = 1880
    Number of faces shared with processor 65 = 2000
    Number of processor patches = 5
    Number of processor faces = 10580
    Number of boundary faces = 1880

Processor 34
    Number of cells = 94000
    Number of faces shared with processor 2 = 2000
    Number of faces shared with processor 33 = 2350
    Number of faces shared with processor 35 = 2350
    Number of faces shared with processor 42 = 1880
    Number of faces shared with processor 66 = 2000
    Number of processor patches = 5
    Number of processor faces = 10580
    Number of boundary faces = 1880

Processor 35
    Number of cells = 93994
    Number of faces shared with processor 3 = 2000
    Number of faces shared with processor 34 = 2350
    Number of faces shared with processor 36 = 2346
    Number of faces shared with processor 43 = 1876
    Number of faces shared with processor 67 = 2006
    Number of faces shared with processor 68 = 1
    Number of faces shared with processor 75 = 1
    Number of processor patches = 7
    Number of processor faces = 10580
    Number of boundary faces = 1880

Processor 36
    Number of cells = 93060
    Number of faces shared with processor 4 = 2000
    Number of faces shared with processor 35 = 2346
    Number of faces shared with processor 37 = 2306
    Number of faces shared with processor 44 = 1840
    Number of faces shared with processor 68 = 2079
    Number of faces shared with processor 69 = 1
    Number of processor patches = 6
    Number of processor faces = 10572
    Number of boundary faces = 1880

Processor 37
    Number of cells = 92021
    Number of faces shared with processor 5 = 2000
    Number of faces shared with processor 36 = 2306
    Number of faces shared with processor 38 = 2300
    Number of faces shared with processor 45 = 1840
    Number of faces shared with processor 69 = 2012
    Number of processor patches = 5
    Number of processor faces = 10458
    Number of boundary faces = 1846

Processor 38
    Number of cells = 92136
    Number of faces shared with processor 6 = 2032
    Number of faces shared with processor 37 = 2300
    Number of faces shared with processor 39 = 2316
    Number of faces shared with processor 46 = 1856
    Number of faces shared with processor 70 = 2000
    Number of processor patches = 5
    Number of processor faces = 10504
    Number of boundary faces = 1840

Processor 39
    Number of cells = 93472
    Number of faces shared with processor 6 = 2
    Number of faces shared with processor 7 = 2064
    Number of faces shared with processor 38 = 2316
    Number of faces shared with processor 47 = 1880
    Number of faces shared with processor 71 = 2000
    Number of processor patches = 5
    Number of processor faces = 8262
    Number of boundary faces = 4198

Processor 40
    Number of cells = 94000
    Number of faces shared with processor 8 = 2000
    Number of faces shared with processor 32 = 1880
    Number of faces shared with processor 41 = 2350
    Number of faces shared with processor 48 = 1880
    Number of faces shared with processor 72 = 2000
    Number of processor patches = 5
    Number of processor faces = 10110
    Number of boundary faces = 2350

Processor 41
    Number of cells = 94000
    Number of faces shared with processor 9 = 2000
    Number of faces shared with processor 33 = 1880
    Number of faces shared with processor 40 = 2350
    Number of faces shared with processor 42 = 2350
    Number of faces shared with processor 49 = 1880
    Number of faces shared with processor 73 = 2000
    Number of processor patches = 6
    Number of processor faces = 12460
    Number of boundary faces = 0

Processor 42
    Number of cells = 93909
    Number of faces shared with processor 10 = 2000
    Number of faces shared with processor 34 = 1880
    Number of faces shared with processor 41 = 2350
    Number of faces shared with processor 43 = 2336
    Number of faces shared with processor 50 = 1866
    Number of faces shared with processor 74 = 2026
    Number of faces shared with processor 75 = 1
    Number of faces shared with processor 82 = 1
    Number of processor patches = 8
    Number of processor faces = 12460
    Number of boundary faces = 0

Processor 43
    Number of cells = 92666
    Number of faces shared with processor 11 = 2000
    Number of faces shared with processor 35 = 1876
    Number of faces shared with processor 42 = 2336
    Number of faces shared with processor 44 = 2300
    Number of faces shared with processor 51 = 1840
    Number of faces shared with processor 75 = 2072
    Number of processor patches = 6
    Number of processor faces = 12424
    Number of boundary faces = 0

Processor 44
    Number of cells = 92000
    Number of faces shared with processor 12 = 2000
    Number of faces shared with processor 36 = 1840
    Number of faces shared with processor 43 = 2300
    Number of faces shared with processor 45 = 2300
    Number of faces shared with processor 52 = 1840
    Number of faces shared with processor 76 = 2000
    Number of processor patches = 6
    Number of processor faces = 12280
    Number of boundary faces = 0

Processor 45
    Number of cells = 92351
    Number of faces shared with processor 13 = 2052
    Number of faces shared with processor 37 = 1840
    Number of faces shared with processor 44 = 2300
    Number of faces shared with processor 46 = 2326
    Number of faces shared with processor 53 = 1866
    Number of faces shared with processor 77 = 2000
    Number of processor patches = 6
    Number of processor faces = 12384
    Number of boundary faces = 0

Processor 46
    Number of cells = 93724
    Number of faces shared with processor 6 = 1
    Number of faces shared with processor 13 = 1
    Number of faces shared with processor 14 = 2046
    Number of faces shared with processor 38 = 1856
    Number of faces shared with processor 45 = 2326
    Number of faces shared with processor 47 = 2350
    Number of faces shared with processor 54 = 1880
    Number of faces shared with processor 78 = 2000
    Number of processor patches = 8
    Number of processor faces = 12460
    Number of boundary faces = 0

Processor 47
    Number of cells = 94000
    Number of faces shared with processor 15 = 2000
    Number of faces shared with processor 39 = 1880
    Number of faces shared with processor 46 = 2350
    Number of faces shared with processor 55 = 1880
    Number of faces shared with processor 79 = 2000
    Number of processor patches = 5
    Number of processor faces = 10110
    Number of boundary faces = 2350

Processor 48
    Number of cells = 94000
    Number of faces shared with processor 16 = 2000
    Number of faces shared with processor 40 = 1880
    Number of faces shared with processor 49 = 2350
    Number of faces shared with processor 56 = 1880
    Number of faces shared with processor 80 = 2000
    Number of processor patches = 5
    Number of processor faces = 10110
    Number of boundary faces = 2350

Processor 49
    Number of cells = 93724
    Number of faces shared with processor 17 = 2000
    Number of faces shared with processor 41 = 1880
    Number of faces shared with processor 48 = 2350
    Number of faces shared with processor 50 = 2326
    Number of faces shared with processor 57 = 1856
    Number of faces shared with processor 81 = 2046
    Number of faces shared with processor 82 = 1
    Number of faces shared with processor 89 = 1
    Number of processor patches = 8
    Number of processor faces = 12460
    Number of boundary faces = 0

Processor 50
    Number of cells = 92351
    Number of faces shared with processor 18 = 2000
    Number of faces shared with processor 42 = 1866
    Number of faces shared with processor 49 = 2326
    Number of faces shared with processor 51 = 2300
    Number of faces shared with processor 58 = 1840
    Number of faces shared with processor 82 = 2052
    Number of processor patches = 6
    Number of processor faces = 12384
    Number of boundary faces = 0

Processor 51
    Number of cells = 92000
    Number of faces shared with processor 19 = 2000
    Number of faces shared with processor 43 = 1840
    Number of faces shared with processor 50 = 2300
    Number of faces shared with processor 52 = 2300
    Number of faces shared with processor 59 = 1840
    Number of faces shared with processor 83 = 2000
    Number of processor patches = 6
    Number of processor faces = 12280
    Number of boundary faces = 0

Processor 52
    Number of cells = 92666
    Number of faces shared with processor 20 = 2072
    Number of faces shared with processor 44 = 1840
    Number of faces shared with processor 51 = 2300
    Number of faces shared with processor 53 = 2336
    Number of faces shared with processor 60 = 1876
    Number of faces shared with processor 84 = 2000
    Number of processor patches = 6
    Number of processor faces = 12424
    Number of boundary faces = 0

Processor 53
    Number of cells = 93909
    Number of faces shared with processor 13 = 1
    Number of faces shared with processor 20 = 1
    Number of faces shared with processor 21 = 2026
    Number of faces shared with processor 45 = 1866
    Number of faces shared with processor 52 = 2336
    Number of faces shared with processor 54 = 2350
    Number of faces shared with processor 61 = 1880
    Number of faces shared with processor 85 = 2000
    Number of processor patches = 8
    Number of processor faces = 12460
    Number of boundary faces = 0

Processor 54
    Number of cells = 94000
    Number of faces shared with processor 22 = 2000
    Number of faces shared with processor 46 = 1880
    Number of faces shared with processor 53 = 2350
    Number of faces shared with processor 55 = 2350
    Number of faces shared with processor 62 = 1880
    Number of faces shared with processor 86 = 2000
    Number of processor patches = 6
    Number of processor faces = 12460
    Number of boundary faces = 0

Processor 55
    Number of cells = 94000
    Number of faces shared with processor 23 = 2000
    Number of faces shared with processor 47 = 1880
    Number of faces shared with processor 54 = 2350
    Number of faces shared with processor 63 = 1880
    Number of faces shared with processor 87 = 2000
    Number of processor patches = 5
    Number of processor faces = 10110
    Number of boundary faces = 2350

Processor 56
    Number of cells = 93472
    Number of faces shared with processor 24 = 2000
    Number of faces shared with processor 48 = 1880
    Number of faces shared with processor 57 = 2317
    Number of faces shared with processor 88 = 2064
    Number of faces shared with processor 89 = 1
    Number of processor patches = 5
    Number of processor faces = 8262
    Number of boundary faces = 4198

Processor 57
    Number of cells = 92137
    Number of faces shared with processor 25 = 2000
    Number of faces shared with processor 49 = 1856
    Number of faces shared with processor 56 = 2317
    Number of faces shared with processor 58 = 2300
    Number of faces shared with processor 89 = 2033
    Number of processor patches = 5
    Number of processor faces = 10506
    Number of boundary faces = 1840

Processor 58
    Number of cells = 92021
    Number of faces shared with processor 26 = 2012
    Number of faces shared with processor 50 = 1840
    Number of faces shared with processor 57 = 2300
    Number of faces shared with processor 59 = 2306
    Number of faces shared with processor 90 = 2000
    Number of processor patches = 5
    Number of processor faces = 10458
    Number of boundary faces = 1846

Processor 59
    Number of cells = 93060
    Number of faces shared with processor 26 = 1
    Number of faces shared with processor 27 = 2079
    Number of faces shared with processor 51 = 1840
    Number of faces shared with processor 58 = 2306
    Number of faces shared with processor 60 = 2346
    Number of faces shared with processor 91 = 2000
    Number of processor patches = 6
    Number of processor faces = 10572
    Number of boundary faces = 1880

Processor 60
    Number of cells = 93994
    Number of faces shared with processor 20 = 1
    Number of faces shared with processor 27 = 1
    Number of faces shared with processor 28 = 2006
    Number of faces shared with processor 52 = 1876
    Number of faces shared with processor 59 = 2346
    Number of faces shared with processor 61 = 2350
    Number of faces shared with processor 92 = 2000
    Number of processor patches = 7
    Number of processor faces = 10580
    Number of boundary faces = 1880

Processor 61
    Number of cells = 94000
    Number of faces shared with processor 29 = 2000
    Number of faces shared with processor 53 = 1880
    Number of faces shared with processor 60 = 2350
    Number of faces shared with processor 62 = 2350
    Number of faces shared with processor 93 = 2000
    Number of processor patches = 5
    Number of processor faces = 10580
    Number of boundary faces = 1880

Processor 62
    Number of cells = 94000
    Number of faces shared with processor 30 = 2000
    Number of faces shared with processor 54 = 1880
    Number of faces shared with processor 61 = 2350
    Number of faces shared with processor 63 = 2350
    Number of faces shared with processor 94 = 2000
    Number of processor patches = 5
    Number of processor faces = 10580
    Number of boundary faces = 1880

Processor 63
    Number of cells = 94000
    Number of faces shared with processor 31 = 2000
    Number of faces shared with processor 55 = 1880
    Number of faces shared with processor 62 = 2350
    Number of faces shared with processor 95 = 2000
    Number of processor patches = 4
    Number of processor faces = 8230
    Number of boundary faces = 4230

Processor 64
    Number of cells = 92000
    Number of faces shared with processor 32 = 2000
    Number of faces shared with processor 65 = 2300
    Number of faces shared with processor 72 = 1840
    Number of processor patches = 3
    Number of processor faces = 6140
    Number of boundary faces = 6140

Processor 65
    Number of cells = 92000
    Number of faces shared with processor 33 = 2000
    Number of faces shared with processor 64 = 2300
    Number of faces shared with processor 66 = 2300
    Number of faces shared with processor 73 = 1840
    Number of processor patches = 4
    Number of processor faces = 8440
    Number of boundary faces = 3840

Processor 66
    Number of cells = 92000
    Number of faces shared with processor 34 = 2000
    Number of faces shared with processor 65 = 2300
    Number of faces shared with processor 67 = 2300
    Number of faces shared with processor 74 = 1840
    Number of processor patches = 4
    Number of processor faces = 8440
    Number of boundary faces = 3840

Processor 67
    Number of cells = 92006
    Number of faces shared with processor 35 = 2006
    Number of faces shared with processor 66 = 2300
    Number of faces shared with processor 68 = 2303
    Number of faces shared with processor 75 = 1843
    Number of processor patches = 4
    Number of processor faces = 8452
    Number of boundary faces = 3840

Processor 68
    Number of cells = 92940
    Number of faces shared with processor 35 = 1
    Number of faces shared with processor 36 = 2079
    Number of faces shared with processor 67 = 2303
    Number of faces shared with processor 69 = 2343
    Number of faces shared with processor 76 = 1880
    Number of processor patches = 5
    Number of processor faces = 8606
    Number of boundary faces = 3840

Processor 69
    Number of cells = 93979
    Number of faces shared with processor 36 = 1
    Number of faces shared with processor 37 = 2012
    Number of faces shared with processor 68 = 2343
    Number of faces shared with processor 70 = 2350
    Number of faces shared with processor 77 = 1880
    Number of processor patches = 5
    Number of processor faces = 8586
    Number of boundary faces = 3874

Processor 70
    Number of cells = 94000
    Number of faces shared with processor 38 = 2000
    Number of faces shared with processor 69 = 2350
    Number of faces shared with processor 71 = 2350
    Number of faces shared with processor 78 = 1880
    Number of processor patches = 4
    Number of processor faces = 8580
    Number of boundary faces = 3880

Processor 71
    Number of cells = 94000
    Number of faces shared with processor 39 = 2000
    Number of faces shared with processor 70 = 2350
    Number of faces shared with processor 79 = 1880
    Number of processor patches = 3
    Number of processor faces = 6230
    Number of boundary faces = 6230

Processor 72
    Number of cells = 92000
    Number of faces shared with processor 40 = 2000
    Number of faces shared with processor 64 = 1840
    Number of faces shared with processor 73 = 2300
    Number of faces shared with processor 80 = 1840
    Number of processor patches = 4
    Number of processor faces = 7980
    Number of boundary faces = 4300

Processor 73
    Number of cells = 92000
    Number of faces shared with processor 41 = 2000
    Number of faces shared with processor 65 = 1840
    Number of faces shared with processor 72 = 2300
    Number of faces shared with processor 74 = 2300
    Number of faces shared with processor 81 = 1840
    Number of processor patches = 5
    Number of processor faces = 10280
    Number of boundary faces = 2000

Processor 74
    Number of cells = 92091
    Number of faces shared with processor 42 = 2026
    Number of faces shared with processor 66 = 1840
    Number of faces shared with processor 73 = 2300
    Number of faces shared with processor 75 = 2313
    Number of faces shared with processor 82 = 1853
    Number of processor patches = 5
    Number of processor faces = 10332
    Number of boundary faces = 2000

Processor 75
    Number of cells = 93334
    Number of faces shared with processor 35 = 1
    Number of faces shared with processor 42 = 1
    Number of faces shared with processor 43 = 2072
    Number of faces shared with processor 67 = 1843
    Number of faces shared with processor 74 = 2313
    Number of faces shared with processor 76 = 2350
    Number of faces shared with processor 83 = 1880
    Number of processor patches = 7
    Number of processor faces = 10460
    Number of boundary faces = 2000

Processor 76
    Number of cells = 94000
    Number of faces shared with processor 44 = 2000
    Number of faces shared with processor 68 = 1880
    Number of faces shared with processor 75 = 2350
    Number of faces shared with processor 77 = 2350
    Number of faces shared with processor 84 = 1880
    Number of processor patches = 5
    Number of processor faces = 10460
    Number of boundary faces = 2000

Processor 77
    Number of cells = 94000
    Number of faces shared with processor 45 = 2000
    Number of faces shared with processor 69 = 1880
    Number of faces shared with processor 76 = 2350
    Number of faces shared with processor 78 = 2350
    Number of faces shared with processor 85 = 1880
    Number of processor patches = 5
    Number of processor faces = 10460
    Number of boundary faces = 2000

Processor 78
    Number of cells = 94000
    Number of faces shared with processor 46 = 2000
    Number of faces shared with processor 70 = 1880
    Number of faces shared with processor 77 = 2350
    Number of faces shared with processor 79 = 2350
    Number of faces shared with processor 86 = 1880
    Number of processor patches = 5
    Number of processor faces = 10460
    Number of boundary faces = 2000

Processor 79
    Number of cells = 94000
    Number of faces shared with processor 47 = 2000
    Number of faces shared with processor 71 = 1880
    Number of faces shared with processor 78 = 2350
    Number of faces shared with processor 87 = 1880
    Number of processor patches = 4
    Number of processor faces = 8110
    Number of boundary faces = 4350

Processor 80
    Number of cells = 92000
    Number of faces shared with processor 48 = 2000
    Number of faces shared with processor 72 = 1840
    Number of faces shared with processor 81 = 2300
    Number of faces shared with processor 88 = 1840
    Number of processor patches = 4
    Number of processor faces = 7980
    Number of boundary faces = 4300

Processor 81
    Number of cells = 92276
    Number of faces shared with processor 49 = 2046
    Number of faces shared with processor 73 = 1840
    Number of faces shared with processor 80 = 2300
    Number of faces shared with processor 82 = 2323
    Number of faces shared with processor 89 = 1863
    Number of processor patches = 5
    Number of processor faces = 10372
    Number of boundary faces = 2000

Processor 82
    Number of cells = 93649
    Number of faces shared with processor 42 = 1
    Number of faces shared with processor 49 = 1
    Number of faces shared with processor 50 = 2052
    Number of faces shared with processor 74 = 1853
    Number of faces shared with processor 81 = 2323
    Number of faces shared with processor 83 = 2350
    Number of faces shared with processor 90 = 1880
    Number of processor patches = 7
    Number of processor faces = 10460
    Number of boundary faces = 2000

Processor 83
    Number of cells = 94000
    Number of faces shared with processor 51 = 2000
    Number of faces shared with processor 75 = 1880
    Number of faces shared with processor 82 = 2350
    Number of faces shared with processor 84 = 2350
    Number of faces shared with processor 91 = 1880
    Number of processor patches = 5
    Number of processor faces = 10460
    Number of boundary faces = 2000

Processor 84
    Number of cells = 94000
    Number of faces shared with processor 52 = 2000
    Number of faces shared with processor 76 = 1880
    Number of faces shared with processor 83 = 2350
    Number of faces shared with processor 85 = 2350
    Number of faces shared with processor 92 = 1880
    Number of processor patches = 5
    Number of processor faces = 10460
    Number of boundary faces = 2000

Processor 85
    Number of cells = 94000
    Number of faces shared with processor 53 = 2000
    Number of faces shared with processor 77 = 1880
    Number of faces shared with processor 84 = 2350
    Number of faces shared with processor 86 = 2350
    Number of faces shared with processor 93 = 1880
    Number of processor patches = 5
    Number of processor faces = 10460
    Number of boundary faces = 2000

Processor 86
    Number of cells = 94000
    Number of faces shared with processor 54 = 2000
    Number of faces shared with processor 78 = 1880
    Number of faces shared with processor 85 = 2350
    Number of faces shared with processor 87 = 2350
    Number of faces shared with processor 94 = 1880
    Number of processor patches = 5
    Number of processor faces = 10460
    Number of boundary faces = 2000

Processor 87
    Number of cells = 94000
    Number of faces shared with processor 55 = 2000
    Number of faces shared with processor 79 = 1880
    Number of faces shared with processor 86 = 2350
    Number of faces shared with processor 95 = 1880
    Number of processor patches = 4
    Number of processor faces = 8110
    Number of boundary faces = 4350

Processor 88
    Number of cells = 92528
    Number of faces shared with processor 56 = 2064
    Number of faces shared with processor 80 = 1840
    Number of faces shared with processor 89 = 2332
    Number of processor patches = 3
    Number of processor faces = 6236
    Number of boundary faces = 6172

Processor 89
    Number of cells = 93863
    Number of faces shared with processor 49 = 1
    Number of faces shared with processor 56 = 1
    Number of faces shared with processor 57 = 2033
    Number of faces shared with processor 81 = 1863
    Number of faces shared with processor 88 = 2332
    Number of faces shared with processor 90 = 2350
    Number of processor patches = 6
    Number of processor faces = 8580
    Number of boundary faces = 3880

Processor 90
    Number of cells = 94000
    Number of faces shared with processor 58 = 2000
    Number of faces shared with processor 82 = 1880
    Number of faces shared with processor 89 = 2350
    Number of faces shared with processor 91 = 2350
    Number of processor patches = 4
    Number of processor faces = 8580
    Number of boundary faces = 3880

Processor 91
    Number of cells = 94000
    Number of faces shared with processor 59 = 2000
    Number of faces shared with processor 83 = 1880
    Number of faces shared with processor 90 = 2350
    Number of faces shared with processor 92 = 2350
    Number of processor patches = 4
    Number of processor faces = 8580
    Number of boundary faces = 3880

Processor 92
    Number of cells = 94000
    Number of faces shared with processor 60 = 2000
    Number of faces shared with processor 84 = 1880
    Number of faces shared with processor 91 = 2350
    Number of faces shared with processor 93 = 2350
    Number of processor patches = 4
    Number of processor faces = 8580
    Number of boundary faces = 3880

Processor 93
    Number of cells = 94000
    Number of faces shared with processor 61 = 2000
    Number of faces shared with processor 85 = 1880
    Number of faces shared with processor 92 = 2350
    Number of faces shared with processor 94 = 2350
    Number of processor patches = 4
    Number of processor faces = 8580
    Number of boundary faces = 3880

Processor 94
    Number of cells = 94000
    Number of faces shared with processor 62 = 2000
    Number of faces shared with processor 86 = 1880
    Number of faces shared with processor 93 = 2350
    Number of faces shared with processor 95 = 2350
    Number of processor patches = 4
    Number of processor faces = 8580
    Number of boundary faces = 3880

Processor 95
    Number of cells = 94000
    Number of faces shared with processor 63 = 2000
    Number of faces shared with processor 87 = 1880
    Number of faces shared with processor 94 = 2350
    Number of processor patches = 3
    Number of processor faces = 6230
    Number of boundary faces = 6230

Number of processor faces = 459179
Max number of cells = 94000 (0.714286% above average 93333.3)
Max number of processor patches = 8 (62.7119% above average 4.91667)
Max number of faces between processors = 12460 (30.2499% above average 9566.23)

Time = 0

Processor 0: field transfer
Processor 1: field transfer
Processor 2: field transfer
Processor 3: field transfer
Processor 4: field transfer
Processor 5: field transfer
Processor 6: field transfer
Processor 7: field transfer
Processor 8: field transfer
Processor 9: field transfer
Processor 10: field transfer
Processor 11: field transfer
Processor 12: field transfer
Processor 13: field transfer
Processor 14: field transfer
Processor 15: field transfer
Processor 16: field transfer
Processor 17: field transfer
Processor 18: field transfer
Processor 19: field transfer
Processor 20: field transfer
Processor 21: field transfer
Processor 22: field transfer
Processor 23: field transfer
Processor 24: field transfer
Processor 25: field transfer
Processor 26: field transfer
Processor 27: field transfer
Processor 28: field transfer
Processor 29: field transfer
Processor 30: field transfer
Processor 31: field transfer
Processor 32: field transfer
Processor 33: field transfer
Processor 34: field transfer
Processor 35: field transfer
Processor 36: field transfer
Processor 37: field transfer
Processor 38: field transfer
Processor 39: field transfer
Processor 40: field transfer
Processor 41: field transfer
Processor 42: field transfer
Processor 43: field transfer
Processor 44: field transfer
Processor 45: field transfer
Processor 46: field transfer
Processor 47: field transfer
Processor 48: field transfer
Processor 49: field transfer
Processor 50: field transfer
Processor 51: field transfer
Processor 52: field transfer
Processor 53: field transfer
Processor 54: field transfer
Processor 55: field transfer
Processor 56: field transfer
Processor 57: field transfer
Processor 58: field transfer
Processor 59: field transfer
Processor 60: field transfer
Processor 61: field transfer
Processor 62: field transfer
Processor 63: field transfer
Processor 64: field transfer
Processor 65: field transfer
Processor 66: field transfer
Processor 67: field transfer
Processor 68: field transfer
Processor 69: field transfer
Processor 70: field transfer
Processor 71: field transfer
Processor 72: field transfer
Processor 73: field transfer
Processor 74: field transfer
Processor 75: field transfer
Processor 76: field transfer
Processor 77: field transfer
Processor 78: field transfer
Processor 79: field transfer
Processor 80: field transfer
Processor 81: field transfer
Processor 82: field transfer
Processor 83: field transfer
Processor 84: field transfer
Processor 85: field transfer
Processor 86: field transfer
Processor 87: field transfer
Processor 88: field transfer
Processor 89: field transfer
Processor 90: field transfer
Processor 91: field transfer
Processor 92: field transfer
Processor 93: field transfer
Processor 94: field transfer
Processor 95: field transfer

End

/*---------------------------------------------------------------------------*\
  =========                 |
  \\      /  F ield         | OpenFOAM: The Open Source CFD Toolbox
   \\    /   O peration     | Website:  https://openfoam.org
    \\  /    A nd           | Version:  8
     \\/     M anipulation  |
\*---------------------------------------------------------------------------*/
Build  : 8
Exec   : simpleDarcyFoam -parallel
Date   : Nov 19 2022
Time   : 07:28:08
Host   : "compute039.int.augusta.nottingham.ac.uk"
PID    : 2637
I/O    : uncollated
Case   : /gpfs01/home/pmxep5/PGSFlowTransport/tutorials/RESULTS/Herten/varMecDispTran/varMecDisp1e-2alphaT
nProcs : 96
Slaves : 
95
(
"compute039.int.augusta.nottingham.ac.uk.2638"
"compute039.int.augusta.nottingham.ac.uk.2639"
"compute039.int.augusta.nottingham.ac.uk.2640"
"compute039.int.augusta.nottingham.ac.uk.2641"
"compute039.int.augusta.nottingham.ac.uk.2642"
"compute039.int.augusta.nottingham.ac.uk.2643"
"compute039.int.augusta.nottingham.ac.uk.2644"
"compute039.int.augusta.nottingham.ac.uk.2645"
"compute039.int.augusta.nottingham.ac.uk.2646"
"compute039.int.augusta.nottingham.ac.uk.2647"
"compute039.int.augusta.nottingham.ac.uk.2648"
"compute040.int.augusta.nottingham.ac.uk.180983"
"compute040.int.augusta.nottingham.ac.uk.180984"
"compute040.int.augusta.nottingham.ac.uk.180985"
"compute040.int.augusta.nottingham.ac.uk.180986"
"compute040.int.augusta.nottingham.ac.uk.180987"
"compute040.int.augusta.nottingham.ac.uk.180988"
"compute040.int.augusta.nottingham.ac.uk.180989"
"compute040.int.augusta.nottingham.ac.uk.180990"
"compute040.int.augusta.nottingham.ac.uk.180991"
"compute040.int.augusta.nottingham.ac.uk.180992"
"compute040.int.augusta.nottingham.ac.uk.180993"
"compute040.int.augusta.nottingham.ac.uk.180994"
"compute048.int.augusta.nottingham.ac.uk.227306"
"compute048.int.augusta.nottingham.ac.uk.227307"
"compute048.int.augusta.nottingham.ac.uk.227308"
"compute048.int.augusta.nottingham.ac.uk.227309"
"compute048.int.augusta.nottingham.ac.uk.227310"
"compute048.int.augusta.nottingham.ac.uk.227311"
"compute048.int.augusta.nottingham.ac.uk.227312"
"compute048.int.augusta.nottingham.ac.uk.227313"
"compute048.int.augusta.nottingham.ac.uk.227314"
"compute048.int.augusta.nottingham.ac.uk.227315"
"compute048.int.augusta.nottingham.ac.uk.227316"
"compute048.int.augusta.nottingham.ac.uk.227317"
"compute049.int.augusta.nottingham.ac.uk.173517"
"compute049.int.augusta.nottingham.ac.uk.173518"
"compute049.int.augusta.nottingham.ac.uk.173519"
"compute049.int.augusta.nottingham.ac.uk.173520"
"compute049.int.augusta.nottingham.ac.uk.173521"
"compute049.int.augusta.nottingham.ac.uk.173522"
"compute049.int.augusta.nottingham.ac.uk.173523"
"compute049.int.augusta.nottingham.ac.uk.173524"
"compute049.int.augusta.nottingham.ac.uk.173525"
"compute049.int.augusta.nottingham.ac.uk.173526"
"compute049.int.augusta.nottingham.ac.uk.173527"
"compute049.int.augusta.nottingham.ac.uk.173528"
"compute066.int.augusta.nottingham.ac.uk.23127"
"compute066.int.augusta.nottingham.ac.uk.23130"
"compute066.int.augusta.nottingham.ac.uk.23132"
"compute066.int.augusta.nottingham.ac.uk.23134"
"compute066.int.augusta.nottingham.ac.uk.23136"
"compute066.int.augusta.nottingham.ac.uk.23138"
"compute066.int.augusta.nottingham.ac.uk.23140"
"compute066.int.augusta.nottingham.ac.uk.23142"
"compute066.int.augusta.nottingham.ac.uk.23144"
"compute066.int.augusta.nottingham.ac.uk.23145"
"compute066.int.augusta.nottingham.ac.uk.23146"
"compute066.int.augusta.nottingham.ac.uk.23147"
"compute067.int.augusta.nottingham.ac.uk.200845"
"compute067.int.augusta.nottingham.ac.uk.200847"
"compute067.int.augusta.nottingham.ac.uk.200849"
"compute067.int.augusta.nottingham.ac.uk.200851"
"compute067.int.augusta.nottingham.ac.uk.200853"
"compute067.int.augusta.nottingham.ac.uk.200855"
"compute067.int.augusta.nottingham.ac.uk.200857"
"compute067.int.augusta.nottingham.ac.uk.200859"
"compute067.int.augusta.nottingham.ac.uk.200863"
"compute067.int.augusta.nottingham.ac.uk.200867"
"compute067.int.augusta.nottingham.ac.uk.200869"
"compute067.int.augusta.nottingham.ac.uk.200871"
"compute077.int.augusta.nottingham.ac.uk.73811"
"compute077.int.augusta.nottingham.ac.uk.73812"
"compute077.int.augusta.nottingham.ac.uk.73814"
"compute077.int.augusta.nottingham.ac.uk.73816"
"compute077.int.augusta.nottingham.ac.uk.73818"
"compute077.int.augusta.nottingham.ac.uk.73820"
"compute077.int.augusta.nottingham.ac.uk.73822"
"compute077.int.augusta.nottingham.ac.uk.73824"
"compute077.int.augusta.nottingham.ac.uk.73826"
"compute077.int.augusta.nottingham.ac.uk.73827"
"compute077.int.augusta.nottingham.ac.uk.73829"
"compute077.int.augusta.nottingham.ac.uk.73831"
"compute078.int.augusta.nottingham.ac.uk.234977"
"compute078.int.augusta.nottingham.ac.uk.234979"
"compute078.int.augusta.nottingham.ac.uk.234981"
"compute078.int.augusta.nottingham.ac.uk.234983"
"compute078.int.augusta.nottingham.ac.uk.234985"
"compute078.int.augusta.nottingham.ac.uk.234987"
"compute078.int.augusta.nottingham.ac.uk.234989"
"compute078.int.augusta.nottingham.ac.uk.234991"
"compute078.int.augusta.nottingham.ac.uk.234992"
"compute078.int.augusta.nottingham.ac.uk.234994"
"compute078.int.augusta.nottingham.ac.uk.234996"
"compute078.int.augusta.nottingham.ac.uk.234998"
)

Pstream initialized with:
    floatTransfer      : 0
    nProcsSimpleSum    : 0
    commsType          : nonBlocking
    polling iterations : 0
sigFpe : Enabling floating point exception trapping (FOAM_SIGFPE).
fileModificationChecking : Monitoring run-time modified files using timeStampMaster (fileModificationSkew 10)
allowSystemOperations : Allowing user-supplied system call operations

// * * * * * * * * * * * * * * * * * * * * * * * * * * * * * * * * * * * * * //
Create time

Create mesh for time = 0


SIMPLE: Convergence criteria found
        p: tolerance 1e-10
        c: tolerance 1e-10


Reading g

Reading field p

Reading transportProperties

Reading field K

Reading/calculating face flux field phi

No finite volume options present

Starting time loop

Time = 100

DICPBiCGStab:  Solving for p, Initial residual = 1, Final residual = 9.6644e-07, No Iterations 501
Mean velocity  = (0.000273321 1.48838e-07 1.13263e-06)

ExecutionTime = 8.06 s  ClockTime = 8 s

Time = 200

DICPBiCGStab:  Solving for p, Initial residual = 5.12367e-07, Final residual = 4.40975e-13, No Iterations 403
Mean velocity  = (0.000273324 1.5024e-07 1.13147e-06)

ExecutionTime = 13.24 s  ClockTime = 13 s

Time = 300

DICPBiCGStab:  Solving for p, Initial residual = 5.0836e-13, Final residual = 4.52373e-16, No Iterations 247
Mean velocity  = (0.000273324 1.5024e-07 1.13147e-06)

ExecutionTime = 16.27 s  ClockTime = 16 s


SIMPLE solution converged in 300 iterations

End

Finalising parallel run
/*---------------------------------------------------------------------------*\
  =========                 |
  \\      /  F ield         | OpenFOAM: The Open Source CFD Toolbox
   \\    /   O peration     | Website:  https://openfoam.org
    \\  /    A nd           | Version:  8
     \\/     M anipulation  |
\*---------------------------------------------------------------------------*/
Build  : 8
Exec   : macroScalarTransport -parallel
Date   : Nov 19 2022
Time   : 07:30:26
Host   : "compute039.int.augusta.nottingham.ac.uk"
PID    : 3739
I/O    : uncollated
Case   : /gpfs01/home/pmxep5/PGSFlowTransport/tutorials/RESULTS/Herten/varMecDispTran/varMecDisp1e-2alphaT
nProcs : 96
Slaves : 
95
(
"compute039.int.augusta.nottingham.ac.uk.3740"
"compute039.int.augusta.nottingham.ac.uk.3741"
"compute039.int.augusta.nottingham.ac.uk.3742"
"compute039.int.augusta.nottingham.ac.uk.3743"
"compute039.int.augusta.nottingham.ac.uk.3744"
"compute039.int.augusta.nottingham.ac.uk.3745"
"compute039.int.augusta.nottingham.ac.uk.3746"
"compute039.int.augusta.nottingham.ac.uk.3747"
"compute039.int.augusta.nottingham.ac.uk.3748"
"compute039.int.augusta.nottingham.ac.uk.3749"
"compute039.int.augusta.nottingham.ac.uk.3750"
"compute040.int.augusta.nottingham.ac.uk.181226"
"compute040.int.augusta.nottingham.ac.uk.181227"
"compute040.int.augusta.nottingham.ac.uk.181228"
"compute040.int.augusta.nottingham.ac.uk.181229"
"compute040.int.augusta.nottingham.ac.uk.181230"
"compute040.int.augusta.nottingham.ac.uk.181231"
"compute040.int.augusta.nottingham.ac.uk.181232"
"compute040.int.augusta.nottingham.ac.uk.181233"
"compute040.int.augusta.nottingham.ac.uk.181234"
"compute040.int.augusta.nottingham.ac.uk.181235"
"compute040.int.augusta.nottingham.ac.uk.181236"
"compute040.int.augusta.nottingham.ac.uk.181237"
"compute048.int.augusta.nottingham.ac.uk.227537"
"compute048.int.augusta.nottingham.ac.uk.227538"
"compute048.int.augusta.nottingham.ac.uk.227539"
"compute048.int.augusta.nottingham.ac.uk.227540"
"compute048.int.augusta.nottingham.ac.uk.227541"
"compute048.int.augusta.nottingham.ac.uk.227542"
"compute048.int.augusta.nottingham.ac.uk.227543"
"compute048.int.augusta.nottingham.ac.uk.227544"
"compute048.int.augusta.nottingham.ac.uk.227545"
"compute048.int.augusta.nottingham.ac.uk.227546"
"compute048.int.augusta.nottingham.ac.uk.227547"
"compute048.int.augusta.nottingham.ac.uk.227548"
"compute049.int.augusta.nottingham.ac.uk.173828"
"compute049.int.augusta.nottingham.ac.uk.173829"
"compute049.int.augusta.nottingham.ac.uk.173830"
"compute049.int.augusta.nottingham.ac.uk.173831"
"compute049.int.augusta.nottingham.ac.uk.173832"
"compute049.int.augusta.nottingham.ac.uk.173833"
"compute049.int.augusta.nottingham.ac.uk.173834"
"compute049.int.augusta.nottingham.ac.uk.173835"
"compute049.int.augusta.nottingham.ac.uk.173836"
"compute049.int.augusta.nottingham.ac.uk.173837"
"compute049.int.augusta.nottingham.ac.uk.173838"
"compute049.int.augusta.nottingham.ac.uk.173839"
"compute066.int.augusta.nottingham.ac.uk.24203"
"compute066.int.augusta.nottingham.ac.uk.24204"
"compute066.int.augusta.nottingham.ac.uk.24205"
"compute066.int.augusta.nottingham.ac.uk.24206"
"compute066.int.augusta.nottingham.ac.uk.24207"
"compute066.int.augusta.nottingham.ac.uk.24208"
"compute066.int.augusta.nottingham.ac.uk.24209"
"compute066.int.augusta.nottingham.ac.uk.24212"
"compute066.int.augusta.nottingham.ac.uk.24213"
"compute066.int.augusta.nottingham.ac.uk.24216"
"compute066.int.augusta.nottingham.ac.uk.24217"
"compute066.int.augusta.nottingham.ac.uk.24218"
"compute067.int.augusta.nottingham.ac.uk.201202"
"compute067.int.augusta.nottingham.ac.uk.201203"
"compute067.int.augusta.nottingham.ac.uk.201204"
"compute067.int.augusta.nottingham.ac.uk.201205"
"compute067.int.augusta.nottingham.ac.uk.201206"
"compute067.int.augusta.nottingham.ac.uk.201207"
"compute067.int.augusta.nottingham.ac.uk.201208"
"compute067.int.augusta.nottingham.ac.uk.201209"
"compute067.int.augusta.nottingham.ac.uk.201210"
"compute067.int.augusta.nottingham.ac.uk.201211"
"compute067.int.augusta.nottingham.ac.uk.201212"
"compute067.int.augusta.nottingham.ac.uk.201213"
"compute077.int.augusta.nottingham.ac.uk.74068"
"compute077.int.augusta.nottingham.ac.uk.74069"
"compute077.int.augusta.nottingham.ac.uk.74070"
"compute077.int.augusta.nottingham.ac.uk.74071"
"compute077.int.augusta.nottingham.ac.uk.74072"
"compute077.int.augusta.nottingham.ac.uk.74073"
"compute077.int.augusta.nottingham.ac.uk.74074"
"compute077.int.augusta.nottingham.ac.uk.74075"
"compute077.int.augusta.nottingham.ac.uk.74076"
"compute077.int.augusta.nottingham.ac.uk.74077"
"compute077.int.augusta.nottingham.ac.uk.74078"
"compute077.int.augusta.nottingham.ac.uk.74079"
"compute078.int.augusta.nottingham.ac.uk.235254"
"compute078.int.augusta.nottingham.ac.uk.235255"
"compute078.int.augusta.nottingham.ac.uk.235256"
"compute078.int.augusta.nottingham.ac.uk.235257"
"compute078.int.augusta.nottingham.ac.uk.235258"
"compute078.int.augusta.nottingham.ac.uk.235259"
"compute078.int.augusta.nottingham.ac.uk.235260"
"compute078.int.augusta.nottingham.ac.uk.235261"
"compute078.int.augusta.nottingham.ac.uk.235262"
"compute078.int.augusta.nottingham.ac.uk.235263"
"compute078.int.augusta.nottingham.ac.uk.235264"
"compute078.int.augusta.nottingham.ac.uk.235265"
)

Pstream initialized with:
    floatTransfer      : 0
    nProcsSimpleSum    : 0
    commsType          : nonBlocking
    polling iterations : 0
sigFpe : Enabling floating point exception trapping (FOAM_SIGFPE).
fileModificationChecking : Monitoring run-time modified files using timeStampMaster (fileModificationSkew 10)
allowSystemOperations : Allowing user-supplied system call operations

// * * * * * * * * * * * * * * * * * * * * * * * * * * * * * * * * * * * * * //
Create time

Create mesh for time = 0


SIMPLE: Convergence criteria found
        p: tolerance 1e-10
        c: tolerance 1e-10

Reading field c

Reading field U

Reading transportProperties

Reading diffusivity Dm

Reading outlet name

Reading porosity phi

Reading mechanical disp coeff alpha

Reading mechanical disp coeff alphaT

Reading controlDict

Reading/calculating face flux field q

No finite volume options present

Calculating scalar transport

Courant Number mean: 0.583838 max: 8.06066
Mean vel = (0.000273324 1.5024e-07 1.13147e-06)

Adaptive time = 9.92457
DILUPBiCGStab:  Solving for c, Initial residual = 1, Final residual = 4.68447e-11, No Iterations 3
Total mass = 1.11487
Flux out = 0

Adaptive time = 19.8491
DILUPBiCGStab:  Solving for c, Initial residual = 0.18938, Final residual = 2.68286e-11, No Iterations 3
Total mass = 2.10901
Flux out = 2.08306e-155

Adaptive time = 29.7737
DILUPBiCGStab:  Solving for c, Initial residual = 0.0965099, Final residual = 2.23944e-11, No Iterations 3
Total mass = 2.99443
Flux out = 1.58337e-153

Adaptive time = 39.6983
DILUPBiCGStab:  Solving for c, Initial residual = 0.0634082, Final residual = 2.14244e-11, No Iterations 3
Total mass = 3.80577
Flux out = 6.04847e-152

Adaptive time = 49.6229
DILUPBiCGStab:  Solving for c, Initial residual = 0.0474433, Final residual = 2.20614e-11, No Iterations 3
Total mass = 4.57038
Flux out = 1.5515e-150

Adaptive time = 59.5474
DILUPBiCGStab:  Solving for c, Initial residual = 0.0382715, Final residual = 2.40141e-11, No Iterations 3
Total mass = 5.30525
Flux out = 3.00868e-149

Adaptive time = 69.472
DILUPBiCGStab:  Solving for c, Initial residual = 0.0323132, Final residual = 2.58027e-11, No Iterations 3
Total mass = 6.02025
Flux out = 4.70673e-148

Adaptive time = 79.3966
DILUPBiCGStab:  Solving for c, Initial residual = 0.0280921, Final residual = 2.62911e-11, No Iterations 3
Total mass = 6.72112
Flux out = 6.18925e-147

Adaptive time = 89.3212
DILUPBiCGStab:  Solving for c, Initial residual = 0.0249217, Final residual = 2.54116e-11, No Iterations 3
Total mass = 7.41139
Flux out = 7.03851e-146

Adaptive time = 99.2457
DILUPBiCGStab:  Solving for c, Initial residual = 0.0224394, Final residual = 2.43594e-11, No Iterations 3
Total mass = 8.09343
Flux out = 7.06843e-145

Adaptive time = 109.17
DILUPBiCGStab:  Solving for c, Initial residual = 0.0204378, Final residual = 2.69489e-11, No Iterations 3
Total mass = 8.76889
Flux out = 6.36992e-144

Adaptive time = 119.095
DILUPBiCGStab:  Solving for c, Initial residual = 0.0187859, Final residual = 3.06696e-11, No Iterations 3
Total mass = 9.439
Flux out = 5.21745e-143

Adaptive time = 129.019
DILUPBiCGStab:  Solving for c, Initial residual = 0.0173978, Final residual = 3.4344e-11, No Iterations 3
Total mass = 10.1047
Flux out = 3.92492e-142

Adaptive time = 138.944
DILUPBiCGStab:  Solving for c, Initial residual = 0.016213, Final residual = 3.74875e-11, No Iterations 3
Total mass = 10.7667
Flux out = 2.73558e-141

Adaptive time = 148.869
DILUPBiCGStab:  Solving for c, Initial residual = 0.0151893, Final residual = 3.98506e-11, No Iterations 3
Total mass = 11.4256
Flux out = 1.7798e-140

Adaptive time = 158.793
DILUPBiCGStab:  Solving for c, Initial residual = 0.0142948, Final residual = 4.13797e-11, No Iterations 3
Total mass = 12.0818
Flux out = 1.08801e-139

Adaptive time = 168.718
DILUPBiCGStab:  Solving for c, Initial residual = 0.013506, Final residual = 4.21354e-11, No Iterations 3
Total mass = 12.7358
Flux out = 6.28583e-139

Adaptive time = 178.642
DILUPBiCGStab:  Solving for c, Initial residual = 0.0128046, Final residual = 4.22501e-11, No Iterations 3
Total mass = 13.3877
Flux out = 3.45024e-138

Adaptive time = 188.567
DILUPBiCGStab:  Solving for c, Initial residual = 0.0121766, Final residual = 4.19131e-11, No Iterations 3
Total mass = 14.038
Flux out = 1.80801e-137

Adaptive time = 198.491
DILUPBiCGStab:  Solving for c, Initial residual = 0.0116109, Final residual = 4.131e-11, No Iterations 3
Total mass = 14.6868
Flux out = 9.08622e-137

Adaptive time = 208.416
DILUPBiCGStab:  Solving for c, Initial residual = 0.0110981, Final residual = 4.06142e-11, No Iterations 3
Total mass = 15.3343
Flux out = 4.39813e-136

Adaptive time = 218.341
DILUPBiCGStab:  Solving for c, Initial residual = 0.0106311, Final residual = 3.99738e-11, No Iterations 3
Total mass = 15.9805
Flux out = 2.05893e-135

Adaptive time = 228.265
DILUPBiCGStab:  Solving for c, Initial residual = 0.010204, Final residual = 3.95253e-11, No Iterations 3
Total mass = 16.6258
Flux out = 9.359e-135

Adaptive time = 238.19
DILUPBiCGStab:  Solving for c, Initial residual = 0.00981162, Final residual = 3.93634e-11, No Iterations 3
Total mass = 17.2701
Flux out = 4.14657e-134

Adaptive time = 248.114
DILUPBiCGStab:  Solving for c, Initial residual = 0.00944983, Final residual = 3.95755e-11, No Iterations 3
Total mass = 17.9137
Flux out = 1.79726e-133

Adaptive time = 258.039
DILUPBiCGStab:  Solving for c, Initial residual = 0.00911508, Final residual = 4.0236e-11, No Iterations 3
Total mass = 18.5564
Flux out = 7.64699e-133

Adaptive time = 267.963
DILUPBiCGStab:  Solving for c, Initial residual = 0.00880444, Final residual = 4.14402e-11, No Iterations 3
Total mass = 19.1986
Flux out = 3.20413e-132

Adaptive time = 277.888
DILUPBiCGStab:  Solving for c, Initial residual = 0.00851532, Final residual = 4.33296e-11, No Iterations 3
Total mass = 19.8401
Flux out = 1.32588e-131

Adaptive time = 287.813
DILUPBiCGStab:  Solving for c, Initial residual = 0.0082455, Final residual = 4.61244e-11, No Iterations 3
Total mass = 20.4811
Flux out = 5.43165e-131

Adaptive time = 297.737
DILUPBiCGStab:  Solving for c, Initial residual = 0.00799308, Final residual = 5.01773e-11, No Iterations 3
Total mass = 21.1215
Flux out = 2.20732e-130

Adaptive time = 307.662
DILUPBiCGStab:  Solving for c, Initial residual = 0.00775637, Final residual = 5.60011e-11, No Iterations 3
Total mass = 21.7616
Flux out = 8.91216e-130

Adaptive time = 317.586
DILUPBiCGStab:  Solving for c, Initial residual = 0.00753393, Final residual = 6.42866e-11, No Iterations 3
Total mass = 22.4012
Flux out = 3.57917e-129

Adaptive time = 327.511
DILUPBiCGStab:  Solving for c, Initial residual = 0.00732452, Final residual = 7.60199e-11, No Iterations 3
Total mass = 23.0404
Flux out = 1.4309e-128

Adaptive time = 337.435
DILUPBiCGStab:  Solving for c, Initial residual = 0.00712694, Final residual = 9.24072e-11, No Iterations 3
Total mass = 23.6793
Flux out = 5.69762e-128

Adaptive time = 347.36
DILUPBiCGStab:  Solving for c, Initial residual = 0.00694028, Final residual = 7.55512e-12, No Iterations 3
Total mass = 24.3179
Flux out = 2.26038e-127

Adaptive time = 357.285
DILUPBiCGStab:  Solving for c, Initial residual = 0.00676359, Final residual = 8.04744e-12, No Iterations 3
Total mass = 24.9562
Flux out = 8.93655e-127

Adaptive time = 367.209
DILUPBiCGStab:  Solving for c, Initial residual = 0.00659609, Final residual = 8.24185e-12, No Iterations 3
Total mass = 25.5942
Flux out = 3.5216e-126

Adaptive time = 377.134
DILUPBiCGStab:  Solving for c, Initial residual = 0.0064371, Final residual = 8.63614e-12, No Iterations 3
Total mass = 26.232
Flux out = 1.38345e-125

Adaptive time = 387.058
DILUPBiCGStab:  Solving for c, Initial residual = 0.00628594, Final residual = 1.00013e-11, No Iterations 3
Total mass = 26.8695
Flux out = 5.41893e-125

Adaptive time = 396.983
DILUPBiCGStab:  Solving for c, Initial residual = 0.00614204, Final residual = 1.1919e-11, No Iterations 3
Total mass = 27.5069
Flux out = 2.11676e-124

Adaptive time = 406.908
DILUPBiCGStab:  Solving for c, Initial residual = 0.0060049, Final residual = 1.46361e-11, No Iterations 3
Total mass = 28.144
Flux out = 8.24739e-124

Adaptive time = 416.832
DILUPBiCGStab:  Solving for c, Initial residual = 0.005874, Final residual = 1.83904e-11, No Iterations 3
Total mass = 28.781
Flux out = 3.20573e-123

Adaptive time = 426.757
DILUPBiCGStab:  Solving for c, Initial residual = 0.00574901, Final residual = 2.31576e-11, No Iterations 3
Total mass = 29.4177
Flux out = 1.24329e-122

Adaptive time = 436.681
DILUPBiCGStab:  Solving for c, Initial residual = 0.00562944, Final residual = 2.85255e-11, No Iterations 3
Total mass = 30.0544
Flux out = 4.81184e-122

Adaptive time = 446.606
DILUPBiCGStab:  Solving for c, Initial residual = 0.00551498, Final residual = 3.3618e-11, No Iterations 3
Total mass = 30.6908
Flux out = 1.85862e-121

Adaptive time = 456.53
DILUPBiCGStab:  Solving for c, Initial residual = 0.00540533, Final residual = 3.72272e-11, No Iterations 3
Total mass = 31.3272
Flux out = 7.16562e-121

Adaptive time = 466.455
DILUPBiCGStab:  Solving for c, Initial residual = 0.00530014, Final residual = 3.80699e-11, No Iterations 3
Total mass = 31.9634
Flux out = 2.7576e-120

Adaptive time = 476.38
DILUPBiCGStab:  Solving for c, Initial residual = 0.00519916, Final residual = 3.51979e-11, No Iterations 3
Total mass = 32.5994
Flux out = 1.05938e-119

Adaptive time = 486.304
DILUPBiCGStab:  Solving for c, Initial residual = 0.00510216, Final residual = 2.86125e-11, No Iterations 3
Total mass = 33.2354
Flux out = 4.06297e-119

Adaptive time = 496.229
DILUPBiCGStab:  Solving for c, Initial residual = 0.00500886, Final residual = 1.80673e-11, No Iterations 3
Total mass = 33.8713
Flux out = 1.55573e-118

Adaptive time = 506.153
DILUPBiCGStab:  Solving for c, Initial residual = 0.0049191, Final residual = 1.9474e-11, No Iterations 3
Total mass = 34.507
Flux out = 5.94767e-118

Adaptive time = 516.078
DILUPBiCGStab:  Solving for c, Initial residual = 0.00483266, Final residual = 4.6638e-11, No Iterations 3
Total mass = 35.1427
Flux out = 2.27046e-117

Adaptive time = 526.002
DILUPBiCGStab:  Solving for c, Initial residual = 0.00474934, Final residual = 8.69576e-11, No Iterations 3
Total mass = 35.7782
Flux out = 8.65482e-117

Adaptive time = 535.927
DILUPBiCGStab:  Solving for c, Initial residual = 0.00466901, Final residual = 1.12128e-11, No Iterations 4
Total mass = 36.4137
Flux out = 3.29465e-116

Adaptive time = 545.852
DILUPBiCGStab:  Solving for c, Initial residual = 0.00459149, Final residual = 1.22732e-11, No Iterations 4
Total mass = 37.0491
Flux out = 1.25254e-115

Adaptive time = 555.776
DILUPBiCGStab:  Solving for c, Initial residual = 0.00451662, Final residual = 1.37213e-11, No Iterations 4
Total mass = 37.6844
Flux out = 4.75582e-115

Adaptive time = 565.701
DILUPBiCGStab:  Solving for c, Initial residual = 0.0044443, Final residual = 1.54209e-11, No Iterations 4
Total mass = 38.3196
Flux out = 1.80358e-114

Adaptive time = 575.625
DILUPBiCGStab:  Solving for c, Initial residual = 0.00437437, Final residual = 1.6978e-11, No Iterations 4
Total mass = 38.9548
Flux out = 6.83178e-114

Adaptive time = 585.55
DILUPBiCGStab:  Solving for c, Initial residual = 0.00430672, Final residual = 1.71503e-11, No Iterations 4
Total mass = 39.5899
Flux out = 2.58486e-113

Adaptive time = 595.474
DILUPBiCGStab:  Solving for c, Initial residual = 0.00424126, Final residual = 1.38841e-11, No Iterations 4
Total mass = 40.225
Flux out = 9.76904e-113

Adaptive time = 605.399
DILUPBiCGStab:  Solving for c, Initial residual = 0.00417785, Final residual = 8.91168e-12, No Iterations 4
Total mass = 40.86
Flux out = 3.68794e-112

Adaptive time = 615.324
DILUPBiCGStab:  Solving for c, Initial residual = 0.00411641, Final residual = 1.02558e-11, No Iterations 4
Total mass = 41.4949
Flux out = 1.39069e-111

Adaptive time = 625.248
DILUPBiCGStab:  Solving for c, Initial residual = 0.00405687, Final residual = 1.14574e-11, No Iterations 4
Total mass = 42.1298
Flux out = 5.23828e-111

Adaptive time = 635.173
DILUPBiCGStab:  Solving for c, Initial residual = 0.00399911, Final residual = 1.24374e-11, No Iterations 4
Total mass = 42.7646
Flux out = 1.97081e-110

Adaptive time = 645.097
DILUPBiCGStab:  Solving for c, Initial residual = 0.00394307, Final residual = 1.33471e-11, No Iterations 4
Total mass = 43.3994
Flux out = 7.40592e-110

Adaptive time = 655.022
DILUPBiCGStab:  Solving for c, Initial residual = 0.00388867, Final residual = 1.43117e-11, No Iterations 4
Total mass = 44.0341
Flux out = 2.7795e-109

Adaptive time = 664.946
DILUPBiCGStab:  Solving for c, Initial residual = 0.00383582, Final residual = 1.53773e-11, No Iterations 4
Total mass = 44.6688
Flux out = 1.04178e-108

Adaptive time = 674.871
DILUPBiCGStab:  Solving for c, Initial residual = 0.00378447, Final residual = 1.65645e-11, No Iterations 4
Total mass = 45.3034
Flux out = 3.89906e-108

Adaptive time = 684.796
DILUPBiCGStab:  Solving for c, Initial residual = 0.00373458, Final residual = 1.78914e-11, No Iterations 4
Total mass = 45.9381
Flux out = 1.45704e-107

Adaptive time = 694.72
DILUPBiCGStab:  Solving for c, Initial residual = 0.00368605, Final residual = 1.938e-11, No Iterations 4
Total mass = 46.5726
Flux out = 5.43559e-107

Adaptive time = 704.645
DILUPBiCGStab:  Solving for c, Initial residual = 0.00363884, Final residual = 2.10493e-11, No Iterations 4
Total mass = 47.2071
Flux out = 2.02404e-106

Adaptive time = 714.569
DILUPBiCGStab:  Solving for c, Initial residual = 0.0035929, Final residual = 2.29214e-11, No Iterations 4
Total mass = 47.8416
Flux out = 7.52157e-106

Adaptive time = 724.494
DILUPBiCGStab:  Solving for c, Initial residual = 0.00354818, Final residual = 2.50193e-11, No Iterations 4
Total mass = 48.4761
Flux out = 2.78887e-105

Adaptive time = 734.418
DILUPBiCGStab:  Solving for c, Initial residual = 0.00350462, Final residual = 2.73635e-11, No Iterations 4
Total mass = 49.1105
Flux out = 1.03154e-104

Adaptive time = 744.343
DILUPBiCGStab:  Solving for c, Initial residual = 0.0034622, Final residual = 2.99677e-11, No Iterations 4
Total mass = 49.7449
Flux out = 3.80522e-104

Adaptive time = 754.268
DILUPBiCGStab:  Solving for c, Initial residual = 0.00342086, Final residual = 3.28463e-11, No Iterations 4
Total mass = 50.3793
Flux out = 1.3996e-103

Adaptive time = 764.192
DILUPBiCGStab:  Solving for c, Initial residual = 0.00338055, Final residual = 3.60145e-11, No Iterations 4
Total mass = 51.0136
Flux out = 5.13161e-103

Adaptive time = 774.117
DILUPBiCGStab:  Solving for c, Initial residual = 0.00334124, Final residual = 3.94939e-11, No Iterations 4
Total mass = 51.6479
Flux out = 1.87505e-102

Adaptive time = 784.041
DILUPBiCGStab:  Solving for c, Initial residual = 0.0033029, Final residual = 4.32779e-11, No Iterations 4
Total mass = 52.2822
Flux out = 6.82612e-102

Adaptive time = 793.966
DILUPBiCGStab:  Solving for c, Initial residual = 0.00326548, Final residual = 4.73269e-11, No Iterations 4
Total mass = 52.9165
Flux out = 2.47527e-101

Adaptive time = 803.89
DILUPBiCGStab:  Solving for c, Initial residual = 0.00322897, Final residual = 5.16082e-11, No Iterations 4
Total mass = 53.5507
Flux out = 8.93819e-101

Adaptive time = 813.815
DILUPBiCGStab:  Solving for c, Initial residual = 0.00319332, Final residual = 5.60747e-11, No Iterations 4
Total mass = 54.1849
Flux out = 3.21328e-100

Adaptive time = 823.74
DILUPBiCGStab:  Solving for c, Initial residual = 0.0031585, Final residual = 6.06949e-11, No Iterations 4
Total mass = 54.8191
Flux out = 1.14979e-99

Adaptive time = 833.664
DILUPBiCGStab:  Solving for c, Initial residual = 0.00312449, Final residual = 6.54128e-11, No Iterations 4
Total mass = 55.4532
Flux out = 4.0941e-99

Adaptive time = 843.589
DILUPBiCGStab:  Solving for c, Initial residual = 0.00309125, Final residual = 7.018e-11, No Iterations 4
Total mass = 56.0874
Flux out = 1.45037e-98

Adaptive time = 853.513
DILUPBiCGStab:  Solving for c, Initial residual = 0.00305876, Final residual = 7.49478e-11, No Iterations 4
Total mass = 56.7215
Flux out = 5.11079e-98

Adaptive time = 863.438
DILUPBiCGStab:  Solving for c, Initial residual = 0.003027, Final residual = 7.96818e-11, No Iterations 4
Total mass = 57.3556
Flux out = 1.79106e-97

Adaptive time = 873.362
DILUPBiCGStab:  Solving for c, Initial residual = 0.00299594, Final residual = 8.43634e-11, No Iterations 4
Total mass = 57.9897
Flux out = 6.2412e-97

Adaptive time = 883.287
DILUPBiCGStab:  Solving for c, Initial residual = 0.00296556, Final residual = 8.89464e-11, No Iterations 4
Total mass = 58.6237
Flux out = 2.16219e-96

Adaptive time = 893.212
DILUPBiCGStab:  Solving for c, Initial residual = 0.00293583, Final residual = 9.33884e-11, No Iterations 4
Total mass = 59.2578
Flux out = 7.44605e-96

Adaptive time = 903.136
DILUPBiCGStab:  Solving for c, Initial residual = 0.00290674, Final residual = 9.76586e-11, No Iterations 4
Total mass = 59.8918
Flux out = 2.54863e-95

Adaptive time = 913.061
DILUPBiCGStab:  Solving for c, Initial residual = 0.00287826, Final residual = 6.40225e-12, No Iterations 4
Total mass = 60.5258
Flux out = 8.66941e-95

Adaptive time = 922.985
DILUPBiCGStab:  Solving for c, Initial residual = 0.00285038, Final residual = 6.87727e-12, No Iterations 4
Total mass = 61.1598
Flux out = 2.9304e-94

Adaptive time = 932.91
DILUPBiCGStab:  Solving for c, Initial residual = 0.00282308, Final residual = 7.32334e-12, No Iterations 4
Total mass = 61.7937
Flux out = 9.84198e-94

Adaptive time = 942.834
DILUPBiCGStab:  Solving for c, Initial residual = 0.00279634, Final residual = 7.73921e-12, No Iterations 4
Total mass = 62.4277
Flux out = 3.28413e-93

Adaptive time = 952.759
DILUPBiCGStab:  Solving for c, Initial residual = 0.00277013, Final residual = 8.12428e-12, No Iterations 4
Total mass = 63.0616
Flux out = 1.08871e-92

Adaptive time = 962.684
DILUPBiCGStab:  Solving for c, Initial residual = 0.00274446, Final residual = 8.47787e-12, No Iterations 4
Total mass = 63.6956
Flux out = 3.58539e-92

Adaptive time = 972.608
DILUPBiCGStab:  Solving for c, Initial residual = 0.0027193, Final residual = 8.80043e-12, No Iterations 4
Total mass = 64.3295
Flux out = 1.17292e-91

Adaptive time = 982.533
DILUPBiCGStab:  Solving for c, Initial residual = 0.00269462, Final residual = 9.09258e-12, No Iterations 4
Total mass = 64.9634
Flux out = 3.8115e-91

Adaptive time = 992.457
DILUPBiCGStab:  Solving for c, Initial residual = 0.00267044, Final residual = 9.3549e-12, No Iterations 4
Total mass = 65.5973
Flux out = 1.23028e-90

Adaptive time = 1002.38
DILUPBiCGStab:  Solving for c, Initial residual = 0.00264672, Final residual = 9.58812e-12, No Iterations 4
Total mass = 66.2312
Flux out = 3.94441e-90

Adaptive time = 1012.31
DILUPBiCGStab:  Solving for c, Initial residual = 0.00262345, Final residual = 9.79322e-12, No Iterations 4
Total mass = 66.865
Flux out = 1.2561e-89

Adaptive time = 1022.23
DILUPBiCGStab:  Solving for c, Initial residual = 0.00260063, Final residual = 9.97149e-12, No Iterations 4
Total mass = 67.4989
Flux out = 3.97309e-89

Adaptive time = 1032.16
DILUPBiCGStab:  Solving for c, Initial residual = 0.00257823, Final residual = 1.0124e-11, No Iterations 4
Total mass = 68.1327
Flux out = 1.24822e-88

Adaptive time = 1042.08
DILUPBiCGStab:  Solving for c, Initial residual = 0.00255625, Final residual = 1.02518e-11, No Iterations 4
Total mass = 68.7665
Flux out = 3.89507e-88

Adaptive time = 1052
DILUPBiCGStab:  Solving for c, Initial residual = 0.00253467, Final residual = 1.03564e-11, No Iterations 4
Total mass = 69.4004
Flux out = 1.20726e-87

Adaptive time = 1061.93
DILUPBiCGStab:  Solving for c, Initial residual = 0.0025135, Final residual = 1.04394e-11, No Iterations 4
Total mass = 70.0342
Flux out = 3.71669e-87

Adaptive time = 1071.85
DILUPBiCGStab:  Solving for c, Initial residual = 0.0024927, Final residual = 1.05023e-11, No Iterations 4
Total mass = 70.668
Flux out = 1.13654e-86

Adaptive time = 1081.78
DILUPBiCGStab:  Solving for c, Initial residual = 0.00247227, Final residual = 1.05469e-11, No Iterations 4
Total mass = 71.3017
Flux out = 3.45222e-86

Adaptive time = 1091.7
DILUPBiCGStab:  Solving for c, Initial residual = 0.00245221, Final residual = 1.05742e-11, No Iterations 4
Total mass = 71.9355
Flux out = 1.0416e-85

Adaptive time = 1101.63
DILUPBiCGStab:  Solving for c, Initial residual = 0.0024325, Final residual = 1.05857e-11, No Iterations 4
Total mass = 72.5693
Flux out = 3.12184e-85

Adaptive time = 1111.55
DILUPBiCGStab:  Solving for c, Initial residual = 0.00241313, Final residual = 1.05833e-11, No Iterations 4
Total mass = 73.203
Flux out = 9.29461e-85

Adaptive time = 1121.48
DILUPBiCGStab:  Solving for c, Initial residual = 0.0023941, Final residual = 1.05688e-11, No Iterations 4
Total mass = 73.8368
Flux out = 2.74903e-84

Adaptive time = 1131.4
DILUPBiCGStab:  Solving for c, Initial residual = 0.0023754, Final residual = 1.05446e-11, No Iterations 4
Total mass = 74.4705
Flux out = 8.07733e-84

Adaptive time = 1141.33
DILUPBiCGStab:  Solving for c, Initial residual = 0.00235701, Final residual = 1.05119e-11, No Iterations 4
Total mass = 75.1043
Flux out = 2.35782e-83

Adaptive time = 1151.25
DILUPBiCGStab:  Solving for c, Initial residual = 0.00233894, Final residual = 1.04724e-11, No Iterations 4
Total mass = 75.738
Flux out = 6.83792e-83

Adaptive time = 1161.18
DILUPBiCGStab:  Solving for c, Initial residual = 0.00232116, Final residual = 1.04275e-11, No Iterations 4
Total mass = 76.3717
Flux out = 1.97025e-82

Adaptive time = 1171.1
DILUPBiCGStab:  Solving for c, Initial residual = 0.00230368, Final residual = 1.03785e-11, No Iterations 4
Total mass = 77.0054
Flux out = 5.64055e-82

Adaptive time = 1181.02
DILUPBiCGStab:  Solving for c, Initial residual = 0.0022865, Final residual = 1.03268e-11, No Iterations 4
Total mass = 77.6391
Flux out = 1.60449e-81

Adaptive time = 1190.95
DILUPBiCGStab:  Solving for c, Initial residual = 0.00226959, Final residual = 1.02735e-11, No Iterations 4
Total mass = 78.2728
Flux out = 4.53513e-81

Adaptive time = 1200.87
[...]
[51]     in file macroScalarTransport.C at line 118.
[51] 
FOAM parallel run exiting
[51] 
[25] 
[25] 
[25] --> FOAM FATAL ERROR: 
[25] Concentration under the threshold
[25] 
[25] 
[25]     From function macroScalarTransport
[25]     in file macroScalarTransport.C at line 118.
[25] 
FOAM parallel run exiting
[25] 
[17] 
[17] 
[17] --> FOAM FATAL ERROR: 
[17] Concentration under the threshold
[17] 
[17] 
[17]     From function macroScalarTransport
[17]     in file macroScalarTransport.C at line 118.
[17] 
FOAM parallel run exiting
[17] 
[82] 
[82] 
[82] --> FOAM FATAL ERROR: 
[82] Concentration under the threshold
[82] 
[82] 
[82]     From function macroScalarTransport
[82]     in file macroScalarTransport.C at line 118.
[82] 
FOAM parallel run exiting
[82] 
[65] 
[65] 
[65] --> FOAM FATAL ERROR: 
[65] Concentration under the threshold
[65] 
[65] 
[65]     From function macroScalarTransport
[65]     in file macroScalarTransport.C at line 118.
[65] 
FOAM parallel run exiting
[65] 
[49] [29] 
[29] 
[29] --> FOAM FATAL ERROR: 
[29] Concentration under the threshold
[29] 
[29] 
[29]     From function macroScalarTransport
[29]     in file macroScalarTransport.C[16] 
[16] [86] 
[86] 
[86] --> FOAM FATAL ERROR: 
[86] Concentration under the threshold
[86] 
[86] [72] 
[72] 
[72] --> FOAM FATAL ERROR: 
[72] Concentration under the threshold
[72] 
[72] 
[72]     From function macroScalarTransport
[72]     in file macroScalarTransport.C at line 118.
[72] 
FOAM parallel run exiting
[72] 
[11] 
[11] 
[11] --> FOAM FATAL ERROR: 
[11] Concentration under the threshold
[11] 
[11] 
[11]     From function macroScalarTransport
[11]     in file macroScalarTransport.C at line 118.
[11] 
FOAM parallel run exiting
[11] 
[4] 
[4] 
[4] --> FOAM FATAL ERROR: 
[4] Concentration under the threshold
[4] 
[4] 
[4]     From function macroScalarTransport
[4]     in file macroScalarTransport.C at line 118.
[4] 
FOAM parallel run exiting
[4] 
[5] 
[5] 
[5] --> FOAM FATAL ERROR: 
[5] Concentration under the threshold
[5] 
[5] 
[5]     From function macroScalarTransport
[5]     in file macroScalarTransport.C at line 118.
[5] 
FOAM parallel run exiting
[5] 
[6] 
[6] 
[6] --> FOAM FATAL ERROR: 
[6] Concentration under the threshold
[6] 
[6] 
[6]     From function macroScalarTransport
[6]     in file macroScalarTransport.C at line 118.
[6] 
FOAM parallel run exiting
[6] 
[7] 
[7] 
[7] --> FOAM FATAL ERROR: 
[7] Concentration under the threshold
[7] 
[7] 
[7]     From function macroScalarTransport
[7]     in file macroScalarTransport.C at line 118.
[7] 
FOAM parallel run exiting
[7] 
[41] 
[41] 
[41] --> FOAM FATAL ERROR: 
[41] Concentration under the threshold
[41] 
[41] 
[41]     From function macroScalarTransport
[41]     in file macroScalarTransport.C at line 118.
[41] 
FOAM parallel run exiting
[41] 

[49] 
 at line 118.
[29] 
FOAM parallel run exiting
[29] 

[16] --> FOAM FATAL ERROR: 
[16] Concentration under the threshold
[16] 
[16] 
[16]     From function macroScalarTransport
[16]     in file macroScalarTransport.C at line 118.
[16] 
FOAM parallel run exiting
[16] 

[86]     From function macroScalarTransport
[86]     in file macroScalarTransport.C at line 118.
[86] 
FOAM parallel run exiting
[86] 
[18] [81] [63] 
[63] [36] 
[36] 
[36] --> FOAM FATAL ERROR: 
[36] Concentration under the threshold
[36] 
[36] 
[36]     From function macroScalarTransport
[36]     in file macroScalarTransport.C at line 118.
[36] 
FOAM parallel run exiting
[36] 
[49] --> FOAM FATAL ERROR: 
[49] Concentration under the threshold
[49] 
[49] 
[49]     From function macroScalarTransport
[49]     in file macroScalarTransport.C at line 118.[31] 
[31] 
[31] [37] 
[37] 
[37] --> FOAM FATAL ERROR: 
[37] Concentration under the threshold
[37] 
[37] 
[37]     From function macroScalarTransport
[37]     in file macroScalarTransport.C at line 118.
[37] 
FOAM parallel run exiting
[37] 

[49] 
FOAM parallel run exiting
[49] 
--> FOAM FATAL ERROR: 
[31] Concentration under the threshold
[31] 
[31] 
[31]     From function macroScalarTransport
[31]     in file macroScalarTransport.C at line 118.
[31] 
FOAM parallel run exiting
[31] 

[18] 
[18] --> FOAM FATAL ERROR: 
[18] Concentration under the threshold
[18] 
[18] 
[18]     From function macroScalarTransport
[18]     in file macroScalarTransport.C at line 118.
[18] 
FOAM parallel run exiting
[18] 
[87] 

[81] 
[81] --> FOAM FATAL ERROR: 
[81] 
[63] --> FOAM FATAL ERROR: 
[63] Concentration under the threshold
[63] 
[63] 
[63]     From function macroScalarTransport
[63]     in file macroScalarTransport.C at line 118.
[63] [20] [87] 
[87] --> FOAM FATAL ERROR: 
[87] Concentration under the threshold
[87] 
[87] 
[87]     From function macroScalarTransport
[87]     in file macroScalarTransport.C at line 118.
[87] 
FOAM parallel run exiting
[87] 
Concentration under the threshold
[81] 
[81] 
[81]     From function macroScalarTransport
[81]     in file macroScalarTransport.C at line 118.
[81] 
FOAM parallel run exiting
[81] 

FOAM parallel run exiting
[63] 
[38] 
[38] 
[38] --> FOAM FATAL ERROR: 
[38] Concentration under the threshold
[38] 
[38] 
[38]     From function macroScalarTransport
[38]     in file macroScalarTransport.C at line 118.
[38] 
FOAM parallel run exiting
[38] 
[53] [24] [40] 
[40] 
[40] --> FOAM FATAL ERROR: 
[40] Concentration under the threshold
[40] 
[40] 
[40]     From function macroScalarTransport
[40]     in file macroScalarTransport.C at line 118.
[40] 
FOAM parallel run exiting
[40] 

[53] 
[53] --> FOAM FATAL ERROR: 
[53] Concentration under the threshold
[53] 
[53] 

[24] 
[24] --> FOAM FATAL ERROR: 
[24] Concentration under the threshold
[24] 
[24] 
[24]     From function macroScalarTransport
[24]     in file macroScalarTransport.C at line 118.
[20] 
[20] --> FOAM FATAL ERROR: 
[20] Concentration under the threshold
[20] 
[20] 
[20]     From function macroScalarTransport
[20]     in file macroScalarTransport.C at line [89] 
[76] [64] 118.
[20] 
FOAM parallel run exiting
[20] 
[94] 

[76] 
[76] --> FOAM FATAL ERROR: 
[64] 
[64] --> FOAM FATAL ERROR: [47] 
[47] 
[47] --> FOAM FATAL ERROR: 
[47] Concentration under the threshold
[47] 
[47] 
[47]     From function macroScalarTransport
[47]     in file macroScalarTransport.C at line 118.
[47] 
FOAM parallel run exiting
[47] 
[53]     From function macroScalarTransport
[53]     in file macroScalarTransport.C at line 118.
[53] 
FOAM parallel run exiting
[53] 

[24] 
FOAM parallel run exiting
[24] 
[32] [21] 
[21] 
[21] --> FOAM FATAL ERROR: 
[21] Concentration under the threshold
[21] 
[21] 
[21]     From function macroScalarTransport
[21]     in file macroScalarTransport.C at line 118.
[89] 
[89] --> FOAM FATAL ERROR: 
[89] Concentration under the threshold
[89] 
[89] 
[89]     From function macroScalarTransport
[89]     in file macroScalarTransport.C at line 118.
[89] 
FOAM parallel run exiting
[89] 

[76] Concentration under the threshold
[76] 
[76] 
[76]     From function macroScalarTransport
[76]     in file macroScalarTransport.C at line 
[64] Concentration under the threshold
[64] 
[64] 
[64] [42] 
[42] 
[42] --> FOAM FATAL ERROR: 
[42] Concentration under the threshold
[42] 
[42] 
[42]     From function macroScalarTransport
[42]     in file macroScalarTransport.C at line 118.
[42] 
FOAM parallel run exiting
[42] 
[55] [21] 
FOAM parallel run exiting
[21] 
[73] 
[73]     From function macroScalarTransport
[64]     in file macroScalarTransport.C at line 118.
[64] 
FOAM parallel run exiting
[64] 
[43] 
[43] 
[43] --> FOAM FATAL ERROR: 
[43] Concentration under the threshold
[43] 
[43] 
[43]     From function macroScalarTransport
[43]     in file macroScalarTransport.C at line 118.
[43] 
FOAM parallel run exiting
[43] 

[55] 
[55] --> FOAM FATAL ERROR: 
[55] Concentration under the threshold
[55] 
[55] 
[55]     From function macroScalarTransport

[32] 
[32] --> FOAM FATAL ERROR: 
[32] Concentration under the threshold
[32] 
[32] 
[32] [44] [55]     in file macroScalarTransport.C at line 118.
[55] 
FOAM parallel run exiting
[55] 
    From function macroScalarTransport
[32]     in file macroScalarTransport.C at line 118.
[32] 
FOAM parallel run exiting
[32] 
[92] 
[92] 
[92] --> FOAM FATAL ERROR: 
[92] Concentration under the threshold
[92] 
[92] 
[92]     From function macroScalarTransport
[92]     in file macroScalarTransport.C at line 118.
[92] 
FOAM parallel run exiting
[92] 
118.
[76] 
FOAM parallel run exiting
[76] 

[44] 
[44] --> FOAM FATAL ERROR: [48] [30] [94] 
[94] --> FOAM FATAL ERROR: 
[94] Concentration under the threshold
[94] 
[94] 
[94]     From function macroScalarTransport
[94]     in file macroScalarTransport.C at line 118.
[94] 
FOAM parallel run exiting
[94] 

[73] --> FOAM FATAL ERROR: 
[73] Concentration under the threshold
[73] 
[73] 
[73]     From function macroScalarTransport
[73]     in file macroScalarTransport.C at line 118.
[73] [67] 
[67] 
[67] --> FOAM FATAL ERROR: 
[67] Concentration under the threshold

[44] Concentration under the threshold
[44] 
[44] 
[44] 
[48] 

[30] 
[30] --> FOAM FATAL ERROR: 
[30] Concentration under the threshold
[30] 
[30] [85] 
[85] 
[85] --> FOAM FATAL ERROR: 
[85] Concentration under the threshold
[85] 
[85] 
[85]     From function macroScalarTransport
[85]     in file macroScalarTransport.C at line 118.
[85] 
FOAM parallel run exiting
[85] 

FOAM parallel run exiting
[73] 
[74] [67] 
[67] 
[67]     From function macroScalarTransport
[67]     in file macroScalarTransport.C at line 118.
[67] 
FOAM parallel run exiting
[67] 
    From function macroScalarTransport
[44]     in file macroScalarTransport.C at line 118.
[48] --> FOAM FATAL ERROR: 
[48] Concentration under the threshold
[48] 
[48] 
[30]     From function macroScalarTransport
[30]     in file macroScalarTransport.C at line 118
[48]     From function macroScalarTransport
[48]     in file macroScalarTransport.C at line 118..
[30] 
FOAM parallel run exiting
[30] 
[12] 
[12] 
[12] --> FOAM FATAL ERROR: 
[12] Concentration under the threshold
[12] 
[12] 
[12]     From function macroScalarTransport
[12]     in file macroScalarTransport.C at line 118.
[12] 
FOAM parallel run exiting
[12] 
[44] 
FOAM parallel run exiting
[44] 

[48] 
FOAM parallel run exiting
[48] 
[28] 
[74] 
[74] --> FOAM FATAL ERROR: 
[74] Concentration under the threshold
[74] 
[74] 
[74]     From function macroScalarTransport
[74]     in file macroScalarTransport.C at line 118.
[74] [68] 
[68] 
[68] --> FOAM FATAL ERROR: 
[68] Concentration under the threshold
[68] 
[68] 
[68]     From function macroScalarTransport
[68]     in file macroScalarTransport.C at line 118.
[68] 
FOAM parallel run exiting
[68] 

[28] 
[28] --> FOAM FATAL ERROR: 
[28] Concentration under the threshold
[28] 
[28] 
[28]     From function [14] 
[14] 
[14] --> FOAM FATAL ERROR: 
[14] Concentration under the threshold
[14] 
[14] 
[14]     From function macroScalarTransport
[14]     in file macroScalarTransport.C at line 118.
[14] 
FOAM parallel run exiting
[14] 
[90] 
[90] 
[90] --> FOAM FATAL ERROR: 
[90] Concentration under the threshold
[90] 
[90] 
FOAM parallel run exiting
[74] 
[66] [22] 
[22] 
[22] --> FOAM FATAL ERROR: 
[22] Concentration under the threshold
[22] 
[22] 
[22]     From function macroScalarTransport
[22]     in file macroScalarTransport.C at line 118.
[22] 
FOAM parallel run exiting
[22] 

[66] 
[66] --> FOAM FATAL ERROR: 
[90]     From function macroScalarTransport
[90]     in file macroScalarTransport.C at line 118.
[90] 
FOAM parallel run exiting
[90] 
[83] 
[66] Concentration under the threshold
[66] 
[66] 
[66]     From function macroScalarTransport
[66]     in file macroScalarTransport.CmacroScalarTransport
[28]     in file macroScalarTransport.C at line 118.
[28] 
FOAM parallel run exiting
[28] 

[83] 
 at line 118.
[66] 
FOAM parallel run exiting
[66] 
[56] [91] [71] 
[56] 
[56] --> FOAM FATAL ERROR: 
[56] Concentration under the threshold
[56] 
[56] 
[56]     From function macroScalarTransport
[23] 
[91] 
[91] --> FOAM FATAL ERROR: 
[91] Concentration under the threshold
[91] 
[91] 
[91]     From function macroScalarTransport
[91]     in file macroScalarTransport.C at line 118.
[91] 
FOAM parallel run exiting
[91] 
[79] 

[71] 
[71] --> FOAM FATAL ERROR: 
[71] Concentration under the threshold
[71] 
[71] 
[71]     From function macroScalarTransport
[71]     in file macroScalarTransport.C at line [56]     in file macroScalarTransport.C at line 118.
[56] 
FOAM parallel run exiting
[56] 

[23] 
[23] --> FOAM FATAL ERROR: 
[23] Concentration under the threshold
[23] 
[23] 
[46] [59] [23]     From function macroScalarTransport
[23]     in file macroScalarTransport.C at line 118.
[23] 
FOAM parallel run exiting
[23] 
[95] [83] --> FOAM FATAL ERROR: 
[83] Concentration under the threshold
[83] 
[83] 
[83]     From function macroScalarTransport
[83]     in file macroScalarTransport.C at line 118.
[83] 
FOAM parallel run exiting
[83] 
118.
[71] 
FOAM parallel run exiting
[71] 

[46] 
[46] --> FOAM FATAL ERROR: 


[95] 
[95] --> FOAM FATAL ERROR: 
[95] [79] 
[79] --> FOAM FATAL ERROR: 
[79] Concentration under the threshold
[79] 
[79] 
[79]     From function macroScalarTransport
[79]     in file macroScalarTransport.C at line 118.
[79] 
FOAM parallel run exiting
[79] 
Concentration under the threshold
[95] 
[95] 
[95]     From function macroScalarTransport
[95]     in file macroScalarTransport.C at line 118.
[95] [46] Concentration under the threshold
[46] 
[46] 
[46]     From function macroScalarTransport
[46]     in file macroScalarTransport.C at line 118.
[46] [59] 
[59] --> FOAM FATAL ERROR: 
[59] Concentration under the threshold
[59] 
[59] 
[59]     From function macroScalarTransport
[59]     in file macroScalarTransport.C at line 118.
[59] 
FOAM parallel run exiting
[59] 
[35] 
[35] 
[35] --> FOAM FATAL ERROR: 
[35] Concentration under the threshold
[35] 
[35] 
[35]     From function macroScalarTransport
[35]     in file macroScalarTransport.C at line 118.
[35] 
FOAM parallel run exiting
[35] 
[13] 
[13] 
[13] --> FOAM FATAL ERROR: 
[13] Concentration under the threshold
[13] 
[13] 
[13]     From function macroScalarTransport
[13] 
FOAM parallel run exiting
[95] 
[70] [58] 
[58] 
[58] --> FOAM FATAL ERROR: 
[58] Concentration under the threshold
[58] 
[58] 
[58]     From function macroScalarTransport
[58] [33] 
[33] 
[33] --> FOAM FATAL ERROR: 
[33] Concentration under the threshold
[33] 
[33] 
[33]     From function macroScalarTransport
[33]     in file macroScalarTransport.C at line 118.
[33] 
FOAM parallel run exiting
[33] 
    in file macroScalarTransport.C at line 118.
[13] 
FOAM parallel run exiting
[13] 

[70] 
FOAM parallel run exiting
[46] 
    in file macroScalarTransport.C at line 118.
[58] 
FOAM parallel run exiting
[58] 
[84] 
[70] --> FOAM FATAL ERROR: 
[70] Concentration under the threshold
[70] 
[70] 
[70]     From function macroScalarTransport
[15] 
[84] 
[84] --> FOAM FATAL ERROR: 
[84] Concentration under the threshold
[84] 
[84] 
[84]     From function macroScalarTransport
[84]     in file macroScalarTransport.C at line 118.
[84] [77] [70]     in file macroScalarTransport.C at line 118.
[70] 
FOAM parallel run exiting
[70] 
[34] 
[34] 
[34] --> FOAM FATAL ERROR: 
[34] Concentration under the threshold
[34] 
[34] 
[34]     From function macroScalarTransport
[34]     in file macroScalarTransport.C at line 118.
[34] 
FOAM parallel run exiting
[34] 

[15] 
[15] --> FOAM FATAL ERROR: 
[15] Concentration under the threshold
[15] 
[15] 
[15]     From function macroScalarTransport
[15]     in file macroScalarTransport.C at line 118.
FOAM parallel run exiting
[84] 

[77] 
[77] --> FOAM FATAL ERROR: 
[77] [45] 
[15] 
FOAM parallel run exiting
[15] 
Concentration under the threshold
[77] 
[77] 
[77]     From function macroScalarTransport
[77]     in file macroScalarTransport.C at line 118.
[52] [27] 
[27] 
[27] --> FOAM FATAL ERROR: 
[27] Concentration under the threshold
[27] 
[27] 
[27]     From function macroScalarTransport
[27]     in file macroScalarTransport.C at line 118.
[27] 
FOAM parallel run exiting
[27] 
[93] [77] 
FOAM parallel run exiting
[77] 
[69] 
[45] 
[45] --> FOAM FATAL ERROR: 
[45] Concentration under the threshold
[45] 
[45] 
[45] 
[93] 
[93] --> FOAM FATAL ERROR: 
[93] Concentration under the threshold
[93] 
[93] 
[93]     From function macroScalarTransport
[93] 
[69]     From function macroScalarTransport
[45]     in file macroScalarTransport.C at line 118.
[45] 
FOAM parallel run exiting
[45] 

[52] 
[52] --> FOAM FATAL ERROR: 
[52] Concentration under the threshold
[52] 
[52] 
[52]     From function macroScalarTransport
[52]     in file macroScalarTransport.C at line 118.
[52] 
FOAM parallel run exiting
[52] 
[19] 
[19] 
[19] --> FOAM FATAL ERROR: 
[19] Concentration under the threshold
[19] 
[19] 
[19]     From function macroScalarTransport
[19]     in file macroScalarTransport.C at line 118.
[19] 
FOAM parallel run exiting
[19] 
    in file macroScalarTransport.C at line 118.
[93] 
FOAM parallel run exiting
[93] 
[78] 
[69] --> FOAM FATAL ERROR: 
[69] Concentration under the threshold
[69] 
[69] 
[69]     From function macroScalarTransport
[69]     in file macroScalarTransport.C at line 118.
[69] 
FOAM parallel run exiting
[69] 
[54] 
[26] 
[26] 
[26] --> FOAM FATAL ERROR: 
[26] Concentration under the threshold
[26] 
[26] 
[26]     From function macroScalarTransport
[26]     in file macroScalarTransport.C at line 118.
[26] 
FOAM parallel run exiting
[26] 

[78] 
[78] --> FOAM FATAL ERROR: 
[78] Concentration under the threshold
[78] 
[78] 
[78]     From function macroScalarTransport
[78]     in file macroScalarTransport.C at line 118.[39] 
[39] [60] 
[39] --> FOAM FATAL ERROR: 
[39] Concentration under the threshold
[39] 
[39] 
[39]     From function macroScalarTransport
[39]     in file macroScalarTransport.C at line 118.
[39] 
FOAM parallel run exiting
[39] 
[54] 
[54] --> FOAM FATAL ERROR: 
[54] Concentration under the threshold
[54] 
[54] 
[54]     From function macroScalarTransport
[54]     in file macroScalarTransport.C at line 118.
[54] 
FOAM parallel run exiting
[54] 

[78] 
FOAM parallel run exiting
[78] 

[60] 
[60] --> FOAM FATAL ERROR: 
[60] Concentration under the threshold
[60] 
[50] 
[50] 
[50] --> FOAM FATAL ERROR: 
[75] [60] 
[60]     From function macroScalarTransport
[60]     in file 
[75] 
[75] --> FOAM FATAL ERROR: 
[75] Concentration under the threshold
[75] 
[75] 
[75]     From function macroScalarTransport
[75]     in file macroScalarTransport.C at line 118.
[75] macroScalarTransport.C at line 118.
[60] 
FOAM parallel run exiting
[60] 
[50] Concentration under the threshold
[50] 
[50] 
[50]     From function macroScalarTransport
[50]     in file macroScalarTransport.C at line 118.
[50] 
FOAM parallel run exiting
[50] 

FOAM parallel run exiting
[75] 
[62] [80] 
[62] 
[57] 
[80] 
[80] --> FOAM FATAL ERROR: 
[80] Concentration under the threshold
[80] 
[80] 
[80]     From function macroScalarTransport
[80]     in file macroScalarTransport.C at line 118.
[80] 
FOAM parallel run exiting
[80] 
[62] --> FOAM FATAL ERROR: 
[62] Concentration under the threshold
[62] 
[62] 
[62]     From function macroScalarTransport
[62]     in file macroScalarTransport.C at line 118.
[57] 
[57] --> FOAM FATAL ERROR: 
[57] Concentration under the threshold
[57] 
[57] 
[57]     From function macroScalarTransport
[57]     in file macroScalarTransport.C at line 118.
[57] 
FOAM parallel run exiting
[57] 

[62] 
FOAM parallel run exiting
[62] 
[61] 
[61] 
[61] --> FOAM FATAL ERROR: 
[61] Concentration under the threshold
[61] 
[61] 
[61]     From function macroScalarTransport
[61]     in file macroScalarTransport.C at line 118.
[61] 
FOAM parallel run exiting
[61] 
[compute039.int.augusta.nottingham.ac.uk:03722] 95 more processes have sent help message help-mpi-api.txt / mpi-abort
[compute039.int.augusta.nottingham.ac.uk:03722] Set MCA parameter "orte_base_help_aggregate" to 0 to see all help / error messages
