/*---------------------------------------------------------------------------*\
  =========                 |
  \\      /  F ield         | OpenFOAM: The Open Source CFD Toolbox
   \\    /   O peration     | Website:  https://openfoam.org
    \\  /    A nd           | Version:  8
     \\/     M anipulation  |
\*---------------------------------------------------------------------------*/
Build  : 8
Exec   : blockMesh
Date   : Nov 04 2022
Time   : 17:26:32
Host   : "compute014.int.augusta.nottingham.ac.uk"
PID    : 76048
I/O    : uncollated
Case   : /gpfs01/home/pmxep5/PGSFlowTransport/tutorials/RESULTS/Herten/varMecDisp1e-3alpha
nProcs : 1
sigFpe : Enabling floating point exception trapping (FOAM_SIGFPE).
fileModificationChecking : Monitoring run-time modified files using timeStampMaster (fileModificationSkew 10)
allowSystemOperations : Allowing user-supplied system call operations

// * * * * * * * * * * * * * * * * * * * * * * * * * * * * * * * * * * * * * //
Create time

Creating block mesh from
    "system/blockMeshDict"
Creating block edges
No non-planar block faces defined
Creating topology blocks
Creating topology patches

Creating block mesh topology

Check topology

	Basic statistics
		Number of internal faces : 0
		Number of boundary faces : 6
		Number of defined boundary faces : 6
		Number of undefined boundary faces : 0
	Checking patch -> block consistency

Creating block offsets
Creating merge list .

Creating polyMesh from blockMesh
Creating patches
Creating cells
Creating points with scale 1
    Block 0 cell size :
        i : 0.05 .. 0.05
        j : 0.05 .. 0.05
        k : 0.05 .. 0.05

Writing polyMesh
----------------
Mesh Information
----------------
  boundingBox: (0 0 0) (16 10 7)
  nPoints: 9097461
  nCells: 8960000
  nFaces: 27016800
  nInternalFaces: 26743200
----------------
Patches
----------------
  patch 0 (start: 26743200 size: 28000) name: inlet
  patch 1 (start: 26771200 size: 28000) name: outlet
  patch 2 (start: 26799200 size: 64000) name: lowerWall
  patch 3 (start: 26863200 size: 64000) name: upperWall
  patch 4 (start: 26927200 size: 89600) name: frontAndBack

End

/*---------------------------------------------------------------------------*\
  =========                 |
  \\      /  F ield         | OpenFOAM: The Open Source CFD Toolbox
   \\    /   O peration     | Website:  https://openfoam.org
    \\  /    A nd           | Version:  8
     \\/     M anipulation  |
\*---------------------------------------------------------------------------*/
Build  : 8
Exec   : decomposePar
Date   : Nov 04 2022
Time   : 17:27:28
Host   : "compute014.int.augusta.nottingham.ac.uk"
PID    : 76158
I/O    : uncollated
Case   : /gpfs01/home/pmxep5/PGSFlowTransport/tutorials/RESULTS/Herten/varMecDisp1e-3alpha
nProcs : 1
sigFpe : Enabling floating point exception trapping (FOAM_SIGFPE).
fileModificationChecking : Monitoring run-time modified files using timeStampMaster (fileModificationSkew 10)
allowSystemOperations : Allowing user-supplied system call operations

// * * * * * * * * * * * * * * * * * * * * * * * * * * * * * * * * * * * * * //
Create time



Decomposing mesh region0

Create mesh

Calculating distribution of cells
Selecting decompositionMethod simple

Finished decomposition in 5.95 s

Calculating original mesh data

Distributing cells to processors

Distributing faces to processors

Distributing points to processors

Constructing processor meshes

Processor 0
    Number of cells = 94000
    Number of faces shared with processor 1 = 2350
    Number of faces shared with processor 8 = 1880
    Number of faces shared with processor 32 = 2000
    Number of processor patches = 3
    Number of processor faces = 6230
    Number of boundary faces = 6230

Processor 1
    Number of cells = 94000
    Number of faces shared with processor 0 = 2350
    Number of faces shared with processor 2 = 2350
    Number of faces shared with processor 9 = 1880
    Number of faces shared with processor 33 = 2000
    Number of processor patches = 4
    Number of processor faces = 8580
    Number of boundary faces = 3880

Processor 2
    Number of cells = 94000
    Number of faces shared with processor 1 = 2350
    Number of faces shared with processor 3 = 2350
    Number of faces shared with processor 10 = 1880
    Number of faces shared with processor 34 = 2000
    Number of processor patches = 4
    Number of processor faces = 8580
    Number of boundary faces = 3880

Processor 3
    Number of cells = 94000
    Number of faces shared with processor 2 = 2350
    Number of faces shared with processor 4 = 2350
    Number of faces shared with processor 11 = 1880
    Number of faces shared with processor 35 = 2000
    Number of processor patches = 4
    Number of processor faces = 8580
    Number of boundary faces = 3880

Processor 4
    Number of cells = 94000
    Number of faces shared with processor 3 = 2350
    Number of faces shared with processor 5 = 2350
    Number of faces shared with processor 12 = 1880
    Number of faces shared with processor 36 = 2000
    Number of processor patches = 4
    Number of processor faces = 8580
    Number of boundary faces = 3880

Processor 5
    Number of cells = 94000
    Number of faces shared with processor 4 = 2350
    Number of faces shared with processor 6 = 2350
    Number of faces shared with processor 13 = 1880
    Number of faces shared with processor 37 = 2000
    Number of processor patches = 4
    Number of processor faces = 8580
    Number of boundary faces = 3880

Processor 6
    Number of cells = 93864
    Number of faces shared with processor 5 = 2350
    Number of faces shared with processor 7 = 2332
    Number of faces shared with processor 14 = 1863
    Number of faces shared with processor 38 = 2032
    Number of faces shared with processor 39 = 2
    Number of faces shared with processor 46 = 1
    Number of processor patches = 6
    Number of processor faces = 8580
    Number of boundary faces = 3880

Processor 7
    Number of cells = 92528
    Number of faces shared with processor 6 = 2332
    Number of faces shared with processor 15 = 1840
    Number of faces shared with processor 39 = 2064
    Number of processor patches = 3
    Number of processor faces = 6236
    Number of boundary faces = 6172

Processor 8
    Number of cells = 94000
    Number of faces shared with processor 0 = 1880
    Number of faces shared with processor 9 = 2350
    Number of faces shared with processor 16 = 1880
    Number of faces shared with processor 40 = 2000
    Number of processor patches = 4
    Number of processor faces = 8110
    Number of boundary faces = 4350

Processor 9
    Number of cells = 94000
    Number of faces shared with processor 1 = 1880
    Number of faces shared with processor 8 = 2350
    Number of faces shared with processor 10 = 2350
    Number of faces shared with processor 17 = 1880
    Number of faces shared with processor 41 = 2000
    Number of processor patches = 5
    Number of processor faces = 10460
    Number of boundary faces = 2000

Processor 10
    Number of cells = 94000
    Number of faces shared with processor 2 = 1880
    Number of faces shared with processor 9 = 2350
    Number of faces shared with processor 11 = 2350
    Number of faces shared with processor 18 = 1880
    Number of faces shared with processor 42 = 2000
    Number of processor patches = 5
    Number of processor faces = 10460
    Number of boundary faces = 2000

Processor 11
    Number of cells = 94000
    Number of faces shared with processor 3 = 1880
    Number of faces shared with processor 10 = 2350
    Number of faces shared with processor 12 = 2350
    Number of faces shared with processor 19 = 1880
    Number of faces shared with processor 43 = 2000
    Number of processor patches = 5
    Number of processor faces = 10460
    Number of boundary faces = 2000

Processor 12
    Number of cells = 94000
    Number of faces shared with processor 4 = 1880
    Number of faces shared with processor 11 = 2350
    Number of faces shared with processor 13 = 2350
    Number of faces shared with processor 20 = 1880
    Number of faces shared with processor 44 = 2000
    Number of processor patches = 5
    Number of processor faces = 10460
    Number of boundary faces = 2000

Processor 13
    Number of cells = 93649
    Number of faces shared with processor 5 = 1880
    Number of faces shared with processor 12 = 2350
    Number of faces shared with processor 14 = 2323
    Number of faces shared with processor 21 = 1853
    Number of faces shared with processor 45 = 2052
    Number of faces shared with processor 46 = 1
    Number of faces shared with processor 53 = 1
    Number of processor patches = 7
    Number of processor faces = 10460
    Number of boundary faces = 2000

Processor 14
    Number of cells = 92276
    Number of faces shared with processor 6 = 1863
    Number of faces shared with processor 13 = 2323
    Number of faces shared with processor 15 = 2300
    Number of faces shared with processor 22 = 1840
    Number of faces shared with processor 46 = 2046
    Number of processor patches = 5
    Number of processor faces = 10372
    Number of boundary faces = 2000

Processor 15
    Number of cells = 92000
    Number of faces shared with processor 7 = 1840
    Number of faces shared with processor 14 = 2300
    Number of faces shared with processor 23 = 1840
    Number of faces shared with processor 47 = 2000
    Number of processor patches = 4
    Number of processor faces = 7980
    Number of boundary faces = 4300

Processor 16
    Number of cells = 94000
    Number of faces shared with processor 8 = 1880
    Number of faces shared with processor 17 = 2350
    Number of faces shared with processor 24 = 1880
    Number of faces shared with processor 48 = 2000
    Number of processor patches = 4
    Number of processor faces = 8110
    Number of boundary faces = 4350

Processor 17
    Number of cells = 94000
    Number of faces shared with processor 9 = 1880
    Number of faces shared with processor 16 = 2350
    Number of faces shared with processor 18 = 2350
    Number of faces shared with processor 25 = 1880
    Number of faces shared with processor 49 = 2000
    Number of processor patches = 5
    Number of processor faces = 10460
    Number of boundary faces = 2000

Processor 18
    Number of cells = 94000
    Number of faces shared with processor 10 = 1880
    Number of faces shared with processor 17 = 2350
    Number of faces shared with processor 19 = 2350
    Number of faces shared with processor 26 = 1880
    Number of faces shared with processor 50 = 2000
    Number of processor patches = 5
    Number of processor faces = 10460
    Number of boundary faces = 2000

Processor 19
    Number of cells = 94000
    Number of faces shared with processor 11 = 1880
    Number of faces shared with processor 18 = 2350
    Number of faces shared with processor 20 = 2350
    Number of faces shared with processor 27 = 1880
    Number of faces shared with processor 51 = 2000
    Number of processor patches = 5
    Number of processor faces = 10460
    Number of boundary faces = 2000

Processor 20
    Number of cells = 93334
    Number of faces shared with processor 12 = 1880
    Number of faces shared with processor 19 = 2350
    Number of faces shared with processor 21 = 2313
    Number of faces shared with processor 28 = 1843
    Number of faces shared with processor 52 = 2072
    Number of faces shared with processor 53 = 1
    Number of faces shared with processor 60 = 1
    Number of processor patches = 7
    Number of processor faces = 10460
    Number of boundary faces = 2000

Processor 21
    Number of cells = 92091
    Number of faces shared with processor 13 = 1853
    Number of faces shared with processor 20 = 2313
    Number of faces shared with processor 22 = 2300
    Number of faces shared with processor 29 = 1840
    Number of faces shared with processor 53 = 2026
    Number of processor patches = 5
    Number of processor faces = 10332
    Number of boundary faces = 2000

Processor 22
    Number of cells = 92000
    Number of faces shared with processor 14 = 1840
    Number of faces shared with processor 21 = 2300
    Number of faces shared with processor 23 = 2300
    Number of faces shared with processor 30 = 1840
    Number of faces shared with processor 54 = 2000
    Number of processor patches = 5
    Number of processor faces = 10280
    Number of boundary faces = 2000

Processor 23
    Number of cells = 92000
    Number of faces shared with processor 15 = 1840
    Number of faces shared with processor 22 = 2300
    Number of faces shared with processor 31 = 1840
    Number of faces shared with processor 55 = 2000
    Number of processor patches = 4
    Number of processor faces = 7980
    Number of boundary faces = 4300

Processor 24
    Number of cells = 94000
    Number of faces shared with processor 16 = 1880
    Number of faces shared with processor 25 = 2350
    Number of faces shared with processor 56 = 2000
    Number of processor patches = 3
    Number of processor faces = 6230
    Number of boundary faces = 6230

Processor 25
    Number of cells = 94000
    Number of faces shared with processor 17 = 1880
    Number of faces shared with processor 24 = 2350
    Number of faces shared with processor 26 = 2350
    Number of faces shared with processor 57 = 2000
    Number of processor patches = 4
    Number of processor faces = 8580
    Number of boundary faces = 3880

Processor 26
    Number of cells = 93979
    Number of faces shared with processor 18 = 1880
    Number of faces shared with processor 25 = 2350
    Number of faces shared with processor 27 = 2343
    Number of faces shared with processor 58 = 2012
    Number of faces shared with processor 59 = 1
    Number of processor patches = 5
    Number of processor faces = 8586
    Number of boundary faces = 3874

Processor 27
    Number of cells = 92940
    Number of faces shared with processor 19 = 1880
    Number of faces shared with processor 26 = 2343
    Number of faces shared with processor 28 = 2303
    Number of faces shared with processor 59 = 2079
    Number of faces shared with processor 60 = 1
    Number of processor patches = 5
    Number of processor faces = 8606
    Number of boundary faces = 3840

Processor 28
    Number of cells = 92006
    Number of faces shared with processor 20 = 1843
    Number of faces shared with processor 27 = 2303
    Number of faces shared with processor 29 = 2300
    Number of faces shared with processor 60 = 2006
    Number of processor patches = 4
    Number of processor faces = 8452
    Number of boundary faces = 3840

Processor 29
    Number of cells = 92000
    Number of faces shared with processor 21 = 1840
    Number of faces shared with processor 28 = 2300
    Number of faces shared with processor 30 = 2300
    Number of faces shared with processor 61 = 2000
    Number of processor patches = 4
    Number of processor faces = 8440
    Number of boundary faces = 3840

Processor 30
    Number of cells = 92000
    Number of faces shared with processor 22 = 1840
    Number of faces shared with processor 29 = 2300
    Number of faces shared with processor 31 = 2300
    Number of faces shared with processor 62 = 2000
    Number of processor patches = 4
    Number of processor faces = 8440
    Number of boundary faces = 3840

Processor 31
    Number of cells = 92000
    Number of faces shared with processor 23 = 1840
    Number of faces shared with processor 30 = 2300
    Number of faces shared with processor 63 = 2000
    Number of processor patches = 3
    Number of processor faces = 6140
    Number of boundary faces = 6140

Processor 32
    Number of cells = 94000
    Number of faces shared with processor 0 = 2000
    Number of faces shared with processor 33 = 2350
    Number of faces shared with processor 40 = 1880
    Number of faces shared with processor 64 = 2000
    Number of processor patches = 4
    Number of processor faces = 8230
    Number of boundary faces = 4230

Processor 33
    Number of cells = 94000
    Number of faces shared with processor 1 = 2000
    Number of faces shared with processor 32 = 2350
    Number of faces shared with processor 34 = 2350
    Number of faces shared with processor 41 = 1880
    Number of faces shared with processor 65 = 2000
    Number of processor patches = 5
    Number of processor faces = 10580
    Number of boundary faces = 1880

Processor 34
    Number of cells = 94000
    Number of faces shared with processor 2 = 2000
    Number of faces shared with processor 33 = 2350
    Number of faces shared with processor 35 = 2350
    Number of faces shared with processor 42 = 1880
    Number of faces shared with processor 66 = 2000
    Number of processor patches = 5
    Number of processor faces = 10580
    Number of boundary faces = 1880

Processor 35
    Number of cells = 93994
    Number of faces shared with processor 3 = 2000
    Number of faces shared with processor 34 = 2350
    Number of faces shared with processor 36 = 2346
    Number of faces shared with processor 43 = 1876
    Number of faces shared with processor 67 = 2006
    Number of faces shared with processor 68 = 1
    Number of faces shared with processor 75 = 1
    Number of processor patches = 7
    Number of processor faces = 10580
    Number of boundary faces = 1880

Processor 36
    Number of cells = 93060
    Number of faces shared with processor 4 = 2000
    Number of faces shared with processor 35 = 2346
    Number of faces shared with processor 37 = 2306
    Number of faces shared with processor 44 = 1840
    Number of faces shared with processor 68 = 2079
    Number of faces shared with processor 69 = 1
    Number of processor patches = 6
    Number of processor faces = 10572
    Number of boundary faces = 1880

Processor 37
    Number of cells = 92021
    Number of faces shared with processor 5 = 2000
    Number of faces shared with processor 36 = 2306
    Number of faces shared with processor 38 = 2300
    Number of faces shared with processor 45 = 1840
    Number of faces shared with processor 69 = 2012
    Number of processor patches = 5
    Number of processor faces = 10458
    Number of boundary faces = 1846

Processor 38
    Number of cells = 92136
    Number of faces shared with processor 6 = 2032
    Number of faces shared with processor 37 = 2300
    Number of faces shared with processor 39 = 2316
    Number of faces shared with processor 46 = 1856
    Number of faces shared with processor 70 = 2000
    Number of processor patches = 5
    Number of processor faces = 10504
    Number of boundary faces = 1840

Processor 39
    Number of cells = 93472
    Number of faces shared with processor 6 = 2
    Number of faces shared with processor 7 = 2064
    Number of faces shared with processor 38 = 2316
    Number of faces shared with processor 47 = 1880
    Number of faces shared with processor 71 = 2000
    Number of processor patches = 5
    Number of processor faces = 8262
    Number of boundary faces = 4198

Processor 40
    Number of cells = 94000
    Number of faces shared with processor 8 = 2000
    Number of faces shared with processor 32 = 1880
    Number of faces shared with processor 41 = 2350
    Number of faces shared with processor 48 = 1880
    Number of faces shared with processor 72 = 2000
    Number of processor patches = 5
    Number of processor faces = 10110
    Number of boundary faces = 2350

Processor 41
    Number of cells = 94000
    Number of faces shared with processor 9 = 2000
    Number of faces shared with processor 33 = 1880
    Number of faces shared with processor 40 = 2350
    Number of faces shared with processor 42 = 2350
    Number of faces shared with processor 49 = 1880
    Number of faces shared with processor 73 = 2000
    Number of processor patches = 6
    Number of processor faces = 12460
    Number of boundary faces = 0

Processor 42
    Number of cells = 93909
    Number of faces shared with processor 10 = 2000
    Number of faces shared with processor 34 = 1880
    Number of faces shared with processor 41 = 2350
    Number of faces shared with processor 43 = 2336
    Number of faces shared with processor 50 = 1866
    Number of faces shared with processor 74 = 2026
    Number of faces shared with processor 75 = 1
    Number of faces shared with processor 82 = 1
    Number of processor patches = 8
    Number of processor faces = 12460
    Number of boundary faces = 0

Processor 43
    Number of cells = 92666
    Number of faces shared with processor 11 = 2000
    Number of faces shared with processor 35 = 1876
    Number of faces shared with processor 42 = 2336
    Number of faces shared with processor 44 = 2300
    Number of faces shared with processor 51 = 1840
    Number of faces shared with processor 75 = 2072
    Number of processor patches = 6
    Number of processor faces = 12424
    Number of boundary faces = 0

Processor 44
    Number of cells = 92000
    Number of faces shared with processor 12 = 2000
    Number of faces shared with processor 36 = 1840
    Number of faces shared with processor 43 = 2300
    Number of faces shared with processor 45 = 2300
    Number of faces shared with processor 52 = 1840
    Number of faces shared with processor 76 = 2000
    Number of processor patches = 6
    Number of processor faces = 12280
    Number of boundary faces = 0

Processor 45
    Number of cells = 92351
    Number of faces shared with processor 13 = 2052
    Number of faces shared with processor 37 = 1840
    Number of faces shared with processor 44 = 2300
    Number of faces shared with processor 46 = 2326
    Number of faces shared with processor 53 = 1866
    Number of faces shared with processor 77 = 2000
    Number of processor patches = 6
    Number of processor faces = 12384
    Number of boundary faces = 0

Processor 46
    Number of cells = 93724
    Number of faces shared with processor 6 = 1
    Number of faces shared with processor 13 = 1
    Number of faces shared with processor 14 = 2046
    Number of faces shared with processor 38 = 1856
    Number of faces shared with processor 45 = 2326
    Number of faces shared with processor 47 = 2350
    Number of faces shared with processor 54 = 1880
    Number of faces shared with processor 78 = 2000
    Number of processor patches = 8
    Number of processor faces = 12460
    Number of boundary faces = 0

Processor 47
    Number of cells = 94000
    Number of faces shared with processor 15 = 2000
    Number of faces shared with processor 39 = 1880
    Number of faces shared with processor 46 = 2350
    Number of faces shared with processor 55 = 1880
    Number of faces shared with processor 79 = 2000
    Number of processor patches = 5
    Number of processor faces = 10110
    Number of boundary faces = 2350

Processor 48
    Number of cells = 94000
    Number of faces shared with processor 16 = 2000
    Number of faces shared with processor 40 = 1880
    Number of faces shared with processor 49 = 2350
    Number of faces shared with processor 56 = 1880
    Number of faces shared with processor 80 = 2000
    Number of processor patches = 5
    Number of processor faces = 10110
    Number of boundary faces = 2350

Processor 49
    Number of cells = 93724
    Number of faces shared with processor 17 = 2000
    Number of faces shared with processor 41 = 1880
    Number of faces shared with processor 48 = 2350
    Number of faces shared with processor 50 = 2326
    Number of faces shared with processor 57 = 1856
    Number of faces shared with processor 81 = 2046
    Number of faces shared with processor 82 = 1
    Number of faces shared with processor 89 = 1
    Number of processor patches = 8
    Number of processor faces = 12460
    Number of boundary faces = 0

Processor 50
    Number of cells = 92351
    Number of faces shared with processor 18 = 2000
    Number of faces shared with processor 42 = 1866
    Number of faces shared with processor 49 = 2326
    Number of faces shared with processor 51 = 2300
    Number of faces shared with processor 58 = 1840
    Number of faces shared with processor 82 = 2052
    Number of processor patches = 6
    Number of processor faces = 12384
    Number of boundary faces = 0

Processor 51
    Number of cells = 92000
    Number of faces shared with processor 19 = 2000
    Number of faces shared with processor 43 = 1840
    Number of faces shared with processor 50 = 2300
    Number of faces shared with processor 52 = 2300
    Number of faces shared with processor 59 = 1840
    Number of faces shared with processor 83 = 2000
    Number of processor patches = 6
    Number of processor faces = 12280
    Number of boundary faces = 0

Processor 52
    Number of cells = 92666
    Number of faces shared with processor 20 = 2072
    Number of faces shared with processor 44 = 1840
    Number of faces shared with processor 51 = 2300
    Number of faces shared with processor 53 = 2336
    Number of faces shared with processor 60 = 1876
    Number of faces shared with processor 84 = 2000
    Number of processor patches = 6
    Number of processor faces = 12424
    Number of boundary faces = 0

Processor 53
    Number of cells = 93909
    Number of faces shared with processor 13 = 1
    Number of faces shared with processor 20 = 1
    Number of faces shared with processor 21 = 2026
    Number of faces shared with processor 45 = 1866
    Number of faces shared with processor 52 = 2336
    Number of faces shared with processor 54 = 2350
    Number of faces shared with processor 61 = 1880
    Number of faces shared with processor 85 = 2000
    Number of processor patches = 8
    Number of processor faces = 12460
    Number of boundary faces = 0

Processor 54
    Number of cells = 94000
    Number of faces shared with processor 22 = 2000
    Number of faces shared with processor 46 = 1880
    Number of faces shared with processor 53 = 2350
    Number of faces shared with processor 55 = 2350
    Number of faces shared with processor 62 = 1880
    Number of faces shared with processor 86 = 2000
    Number of processor patches = 6
    Number of processor faces = 12460
    Number of boundary faces = 0

Processor 55
    Number of cells = 94000
    Number of faces shared with processor 23 = 2000
    Number of faces shared with processor 47 = 1880
    Number of faces shared with processor 54 = 2350
    Number of faces shared with processor 63 = 1880
    Number of faces shared with processor 87 = 2000
    Number of processor patches = 5
    Number of processor faces = 10110
    Number of boundary faces = 2350

Processor 56
    Number of cells = 93472
    Number of faces shared with processor 24 = 2000
    Number of faces shared with processor 48 = 1880
    Number of faces shared with processor 57 = 2317
    Number of faces shared with processor 88 = 2064
    Number of faces shared with processor 89 = 1
    Number of processor patches = 5
    Number of processor faces = 8262
    Number of boundary faces = 4198

Processor 57
    Number of cells = 92137
    Number of faces shared with processor 25 = 2000
    Number of faces shared with processor 49 = 1856
    Number of faces shared with processor 56 = 2317
    Number of faces shared with processor 58 = 2300
    Number of faces shared with processor 89 = 2033
    Number of processor patches = 5
    Number of processor faces = 10506
    Number of boundary faces = 1840

Processor 58
    Number of cells = 92021
    Number of faces shared with processor 26 = 2012
    Number of faces shared with processor 50 = 1840
    Number of faces shared with processor 57 = 2300
    Number of faces shared with processor 59 = 2306
    Number of faces shared with processor 90 = 2000
    Number of processor patches = 5
    Number of processor faces = 10458
    Number of boundary faces = 1846

Processor 59
    Number of cells = 93060
    Number of faces shared with processor 26 = 1
    Number of faces shared with processor 27 = 2079
    Number of faces shared with processor 51 = 1840
    Number of faces shared with processor 58 = 2306
    Number of faces shared with processor 60 = 2346
    Number of faces shared with processor 91 = 2000
    Number of processor patches = 6
    Number of processor faces = 10572
    Number of boundary faces = 1880

Processor 60
    Number of cells = 93994
    Number of faces shared with processor 20 = 1
    Number of faces shared with processor 27 = 1
    Number of faces shared with processor 28 = 2006
    Number of faces shared with processor 52 = 1876
    Number of faces shared with processor 59 = 2346
    Number of faces shared with processor 61 = 2350
    Number of faces shared with processor 92 = 2000
    Number of processor patches = 7
    Number of processor faces = 10580
    Number of boundary faces = 1880

Processor 61
    Number of cells = 94000
    Number of faces shared with processor 29 = 2000
    Number of faces shared with processor 53 = 1880
    Number of faces shared with processor 60 = 2350
    Number of faces shared with processor 62 = 2350
    Number of faces shared with processor 93 = 2000
    Number of processor patches = 5
    Number of processor faces = 10580
    Number of boundary faces = 1880

Processor 62
    Number of cells = 94000
    Number of faces shared with processor 30 = 2000
    Number of faces shared with processor 54 = 1880
    Number of faces shared with processor 61 = 2350
    Number of faces shared with processor 63 = 2350
    Number of faces shared with processor 94 = 2000
    Number of processor patches = 5
    Number of processor faces = 10580
    Number of boundary faces = 1880

Processor 63
    Number of cells = 94000
    Number of faces shared with processor 31 = 2000
    Number of faces shared with processor 55 = 1880
    Number of faces shared with processor 62 = 2350
    Number of faces shared with processor 95 = 2000
    Number of processor patches = 4
    Number of processor faces = 8230
    Number of boundary faces = 4230

Processor 64
    Number of cells = 92000
    Number of faces shared with processor 32 = 2000
    Number of faces shared with processor 65 = 2300
    Number of faces shared with processor 72 = 1840
    Number of processor patches = 3
    Number of processor faces = 6140
    Number of boundary faces = 6140

Processor 65
    Number of cells = 92000
    Number of faces shared with processor 33 = 2000
    Number of faces shared with processor 64 = 2300
    Number of faces shared with processor 66 = 2300
    Number of faces shared with processor 73 = 1840
    Number of processor patches = 4
    Number of processor faces = 8440
    Number of boundary faces = 3840

Processor 66
    Number of cells = 92000
    Number of faces shared with processor 34 = 2000
    Number of faces shared with processor 65 = 2300
    Number of faces shared with processor 67 = 2300
    Number of faces shared with processor 74 = 1840
    Number of processor patches = 4
    Number of processor faces = 8440
    Number of boundary faces = 3840

Processor 67
    Number of cells = 92006
    Number of faces shared with processor 35 = 2006
    Number of faces shared with processor 66 = 2300
    Number of faces shared with processor 68 = 2303
    Number of faces shared with processor 75 = 1843
    Number of processor patches = 4
    Number of processor faces = 8452
    Number of boundary faces = 3840

Processor 68
    Number of cells = 92940
    Number of faces shared with processor 35 = 1
    Number of faces shared with processor 36 = 2079
    Number of faces shared with processor 67 = 2303
    Number of faces shared with processor 69 = 2343
    Number of faces shared with processor 76 = 1880
    Number of processor patches = 5
    Number of processor faces = 8606
    Number of boundary faces = 3840

Processor 69
    Number of cells = 93979
    Number of faces shared with processor 36 = 1
    Number of faces shared with processor 37 = 2012
    Number of faces shared with processor 68 = 2343
    Number of faces shared with processor 70 = 2350
    Number of faces shared with processor 77 = 1880
    Number of processor patches = 5
    Number of processor faces = 8586
    Number of boundary faces = 3874

Processor 70
    Number of cells = 94000
    Number of faces shared with processor 38 = 2000
    Number of faces shared with processor 69 = 2350
    Number of faces shared with processor 71 = 2350
    Number of faces shared with processor 78 = 1880
    Number of processor patches = 4
    Number of processor faces = 8580
    Number of boundary faces = 3880

Processor 71
    Number of cells = 94000
    Number of faces shared with processor 39 = 2000
    Number of faces shared with processor 70 = 2350
    Number of faces shared with processor 79 = 1880
    Number of processor patches = 3
    Number of processor faces = 6230
    Number of boundary faces = 6230

Processor 72
    Number of cells = 92000
    Number of faces shared with processor 40 = 2000
    Number of faces shared with processor 64 = 1840
    Number of faces shared with processor 73 = 2300
    Number of faces shared with processor 80 = 1840
    Number of processor patches = 4
    Number of processor faces = 7980
    Number of boundary faces = 4300

Processor 73
    Number of cells = 92000
    Number of faces shared with processor 41 = 2000
    Number of faces shared with processor 65 = 1840
    Number of faces shared with processor 72 = 2300
    Number of faces shared with processor 74 = 2300
    Number of faces shared with processor 81 = 1840
    Number of processor patches = 5
    Number of processor faces = 10280
    Number of boundary faces = 2000

Processor 74
    Number of cells = 92091
    Number of faces shared with processor 42 = 2026
    Number of faces shared with processor 66 = 1840
    Number of faces shared with processor 73 = 2300
    Number of faces shared with processor 75 = 2313
    Number of faces shared with processor 82 = 1853
    Number of processor patches = 5
    Number of processor faces = 10332
    Number of boundary faces = 2000

Processor 75
    Number of cells = 93334
    Number of faces shared with processor 35 = 1
    Number of faces shared with processor 42 = 1
    Number of faces shared with processor 43 = 2072
    Number of faces shared with processor 67 = 1843
    Number of faces shared with processor 74 = 2313
    Number of faces shared with processor 76 = 2350
    Number of faces shared with processor 83 = 1880
    Number of processor patches = 7
    Number of processor faces = 10460
    Number of boundary faces = 2000

Processor 76
    Number of cells = 94000
    Number of faces shared with processor 44 = 2000
    Number of faces shared with processor 68 = 1880
    Number of faces shared with processor 75 = 2350
    Number of faces shared with processor 77 = 2350
    Number of faces shared with processor 84 = 1880
    Number of processor patches = 5
    Number of processor faces = 10460
    Number of boundary faces = 2000

Processor 77
    Number of cells = 94000
    Number of faces shared with processor 45 = 2000
    Number of faces shared with processor 69 = 1880
    Number of faces shared with processor 76 = 2350
    Number of faces shared with processor 78 = 2350
    Number of faces shared with processor 85 = 1880
    Number of processor patches = 5
    Number of processor faces = 10460
    Number of boundary faces = 2000

Processor 78
    Number of cells = 94000
    Number of faces shared with processor 46 = 2000
    Number of faces shared with processor 70 = 1880
    Number of faces shared with processor 77 = 2350
    Number of faces shared with processor 79 = 2350
    Number of faces shared with processor 86 = 1880
    Number of processor patches = 5
    Number of processor faces = 10460
    Number of boundary faces = 2000

Processor 79
    Number of cells = 94000
    Number of faces shared with processor 47 = 2000
    Number of faces shared with processor 71 = 1880
    Number of faces shared with processor 78 = 2350
    Number of faces shared with processor 87 = 1880
    Number of processor patches = 4
    Number of processor faces = 8110
    Number of boundary faces = 4350

Processor 80
    Number of cells = 92000
    Number of faces shared with processor 48 = 2000
    Number of faces shared with processor 72 = 1840
    Number of faces shared with processor 81 = 2300
    Number of faces shared with processor 88 = 1840
    Number of processor patches = 4
    Number of processor faces = 7980
    Number of boundary faces = 4300

Processor 81
    Number of cells = 92276
    Number of faces shared with processor 49 = 2046
    Number of faces shared with processor 73 = 1840
    Number of faces shared with processor 80 = 2300
    Number of faces shared with processor 82 = 2323
    Number of faces shared with processor 89 = 1863
    Number of processor patches = 5
    Number of processor faces = 10372
    Number of boundary faces = 2000

Processor 82
    Number of cells = 93649
    Number of faces shared with processor 42 = 1
    Number of faces shared with processor 49 = 1
    Number of faces shared with processor 50 = 2052
    Number of faces shared with processor 74 = 1853
    Number of faces shared with processor 81 = 2323
    Number of faces shared with processor 83 = 2350
    Number of faces shared with processor 90 = 1880
    Number of processor patches = 7
    Number of processor faces = 10460
    Number of boundary faces = 2000

Processor 83
    Number of cells = 94000
    Number of faces shared with processor 51 = 2000
    Number of faces shared with processor 75 = 1880
    Number of faces shared with processor 82 = 2350
    Number of faces shared with processor 84 = 2350
    Number of faces shared with processor 91 = 1880
    Number of processor patches = 5
    Number of processor faces = 10460
    Number of boundary faces = 2000

Processor 84
    Number of cells = 94000
    Number of faces shared with processor 52 = 2000
    Number of faces shared with processor 76 = 1880
    Number of faces shared with processor 83 = 2350
    Number of faces shared with processor 85 = 2350
    Number of faces shared with processor 92 = 1880
    Number of processor patches = 5
    Number of processor faces = 10460
    Number of boundary faces = 2000

Processor 85
    Number of cells = 94000
    Number of faces shared with processor 53 = 2000
    Number of faces shared with processor 77 = 1880
    Number of faces shared with processor 84 = 2350
    Number of faces shared with processor 86 = 2350
    Number of faces shared with processor 93 = 1880
    Number of processor patches = 5
    Number of processor faces = 10460
    Number of boundary faces = 2000

Processor 86
    Number of cells = 94000
    Number of faces shared with processor 54 = 2000
    Number of faces shared with processor 78 = 1880
    Number of faces shared with processor 85 = 2350
    Number of faces shared with processor 87 = 2350
    Number of faces shared with processor 94 = 1880
    Number of processor patches = 5
    Number of processor faces = 10460
    Number of boundary faces = 2000

Processor 87
    Number of cells = 94000
    Number of faces shared with processor 55 = 2000
    Number of faces shared with processor 79 = 1880
    Number of faces shared with processor 86 = 2350
    Number of faces shared with processor 95 = 1880
    Number of processor patches = 4
    Number of processor faces = 8110
    Number of boundary faces = 4350

Processor 88
    Number of cells = 92528
    Number of faces shared with processor 56 = 2064
    Number of faces shared with processor 80 = 1840
    Number of faces shared with processor 89 = 2332
    Number of processor patches = 3
    Number of processor faces = 6236
    Number of boundary faces = 6172

Processor 89
    Number of cells = 93863
    Number of faces shared with processor 49 = 1
    Number of faces shared with processor 56 = 1
    Number of faces shared with processor 57 = 2033
    Number of faces shared with processor 81 = 1863
    Number of faces shared with processor 88 = 2332
    Number of faces shared with processor 90 = 2350
    Number of processor patches = 6
    Number of processor faces = 8580
    Number of boundary faces = 3880

Processor 90
    Number of cells = 94000
    Number of faces shared with processor 58 = 2000
    Number of faces shared with processor 82 = 1880
    Number of faces shared with processor 89 = 2350
    Number of faces shared with processor 91 = 2350
    Number of processor patches = 4
    Number of processor faces = 8580
    Number of boundary faces = 3880

Processor 91
    Number of cells = 94000
    Number of faces shared with processor 59 = 2000
    Number of faces shared with processor 83 = 1880
    Number of faces shared with processor 90 = 2350
    Number of faces shared with processor 92 = 2350
    Number of processor patches = 4
    Number of processor faces = 8580
    Number of boundary faces = 3880

Processor 92
    Number of cells = 94000
    Number of faces shared with processor 60 = 2000
    Number of faces shared with processor 84 = 1880
    Number of faces shared with processor 91 = 2350
    Number of faces shared with processor 93 = 2350
    Number of processor patches = 4
    Number of processor faces = 8580
    Number of boundary faces = 3880

Processor 93
    Number of cells = 94000
    Number of faces shared with processor 61 = 2000
    Number of faces shared with processor 85 = 1880
    Number of faces shared with processor 92 = 2350
    Number of faces shared with processor 94 = 2350
    Number of processor patches = 4
    Number of processor faces = 8580
    Number of boundary faces = 3880

Processor 94
    Number of cells = 94000
    Number of faces shared with processor 62 = 2000
    Number of faces shared with processor 86 = 1880
    Number of faces shared with processor 93 = 2350
    Number of faces shared with processor 95 = 2350
    Number of processor patches = 4
    Number of processor faces = 8580
    Number of boundary faces = 3880

Processor 95
    Number of cells = 94000
    Number of faces shared with processor 63 = 2000
    Number of faces shared with processor 87 = 1880
    Number of faces shared with processor 94 = 2350
    Number of processor patches = 3
    Number of processor faces = 6230
    Number of boundary faces = 6230

Number of processor faces = 459179
Max number of cells = 94000 (0.714286% above average 93333.3)
Max number of processor patches = 8 (62.7119% above average 4.91667)
Max number of faces between processors = 12460 (30.2499% above average 9566.23)

Time = 0

Processor 0: field transfer
Processor 1: field transfer
Processor 2: field transfer
Processor 3: field transfer
Processor 4: field transfer
Processor 5: field transfer
Processor 6: field transfer
Processor 7: field transfer
Processor 8: field transfer
Processor 9: field transfer
Processor 10: field transfer
Processor 11: field transfer
Processor 12: field transfer
Processor 13: field transfer
Processor 14: field transfer
Processor 15: field transfer
Processor 16: field transfer
Processor 17: field transfer
Processor 18: field transfer
Processor 19: field transfer
Processor 20: field transfer
Processor 21: field transfer
Processor 22: field transfer
Processor 23: field transfer
Processor 24: field transfer
Processor 25: field transfer
Processor 26: field transfer
Processor 27: field transfer
Processor 28: field transfer
Processor 29: field transfer
Processor 30: field transfer
Processor 31: field transfer
Processor 32: field transfer
Processor 33: field transfer
Processor 34: field transfer
Processor 35: field transfer
Processor 36: field transfer
Processor 37: field transfer
Processor 38: field transfer
Processor 39: field transfer
Processor 40: field transfer
Processor 41: field transfer
Processor 42: field transfer
Processor 43: field transfer
Processor 44: field transfer
Processor 45: field transfer
Processor 46: field transfer
Processor 47: field transfer
Processor 48: field transfer
Processor 49: field transfer
Processor 50: field transfer
Processor 51: field transfer
Processor 52: field transfer
Processor 53: field transfer
Processor 54: field transfer
Processor 55: field transfer
Processor 56: field transfer
Processor 57: field transfer
Processor 58: field transfer
Processor 59: field transfer
Processor 60: field transfer
Processor 61: field transfer
Processor 62: field transfer
Processor 63: field transfer
Processor 64: field transfer
Processor 65: field transfer
Processor 66: field transfer
Processor 67: field transfer
Processor 68: field transfer
Processor 69: field transfer
Processor 70: field transfer
Processor 71: field transfer
Processor 72: field transfer
Processor 73: field transfer
Processor 74: field transfer
Processor 75: field transfer
Processor 76: field transfer
Processor 77: field transfer
Processor 78: field transfer
Processor 79: field transfer
Processor 80: field transfer
Processor 81: field transfer
Processor 82: field transfer
Processor 83: field transfer
Processor 84: field transfer
Processor 85: field transfer
Processor 86: field transfer
Processor 87: field transfer
Processor 88: field transfer
Processor 89: field transfer
Processor 90: field transfer
Processor 91: field transfer
Processor 92: field transfer
Processor 93: field transfer
Processor 94: field transfer
Processor 95: field transfer

End

/*---------------------------------------------------------------------------*\
  =========                 |
  \\      /  F ield         | OpenFOAM: The Open Source CFD Toolbox
   \\    /   O peration     | Website:  https://openfoam.org
    \\  /    A nd           | Version:  8
     \\/     M anipulation  |
\*---------------------------------------------------------------------------*/
Build  : 8
Exec   : simpleDarcyFoam -parallel
Date   : Nov 04 2022
Time   : 17:29:58
Host   : "compute014.int.augusta.nottingham.ac.uk"
PID    : 76295
I/O    : uncollated
Case   : /gpfs01/home/pmxep5/PGSFlowTransport/tutorials/RESULTS/Herten/varMecDisp1e-3alpha
nProcs : 96
Slaves : 
95
(
"compute014.int.augusta.nottingham.ac.uk.76296"
"compute014.int.augusta.nottingham.ac.uk.76297"
"compute014.int.augusta.nottingham.ac.uk.76298"
"compute014.int.augusta.nottingham.ac.uk.76299"
"compute014.int.augusta.nottingham.ac.uk.76300"
"compute014.int.augusta.nottingham.ac.uk.76301"
"compute014.int.augusta.nottingham.ac.uk.76302"
"compute014.int.augusta.nottingham.ac.uk.76303"
"compute014.int.augusta.nottingham.ac.uk.76304"
"compute014.int.augusta.nottingham.ac.uk.76305"
"compute014.int.augusta.nottingham.ac.uk.76306"
"compute022.int.augusta.nottingham.ac.uk.55086"
"compute022.int.augusta.nottingham.ac.uk.55087"
"compute022.int.augusta.nottingham.ac.uk.55088"
"compute022.int.augusta.nottingham.ac.uk.55130"
"compute022.int.augusta.nottingham.ac.uk.55131"
"compute022.int.augusta.nottingham.ac.uk.55132"
"compute022.int.augusta.nottingham.ac.uk.55133"
"compute022.int.augusta.nottingham.ac.uk.55134"
"compute022.int.augusta.nottingham.ac.uk.55135"
"compute022.int.augusta.nottingham.ac.uk.55136"
"compute022.int.augusta.nottingham.ac.uk.55137"
"compute022.int.augusta.nottingham.ac.uk.55138"
"compute023.int.augusta.nottingham.ac.uk.187717"
"compute023.int.augusta.nottingham.ac.uk.187718"
"compute023.int.augusta.nottingham.ac.uk.187719"
"compute023.int.augusta.nottingham.ac.uk.187720"
"compute023.int.augusta.nottingham.ac.uk.187721"
"compute023.int.augusta.nottingham.ac.uk.187722"
"compute023.int.augusta.nottingham.ac.uk.187723"
"compute023.int.augusta.nottingham.ac.uk.187724"
"compute023.int.augusta.nottingham.ac.uk.187725"
"compute023.int.augusta.nottingham.ac.uk.187726"
"compute023.int.augusta.nottingham.ac.uk.187727"
"compute023.int.augusta.nottingham.ac.uk.187728"
"compute024.int.augusta.nottingham.ac.uk.147572"
"compute024.int.augusta.nottingham.ac.uk.147573"
"compute024.int.augusta.nottingham.ac.uk.147574"
"compute024.int.augusta.nottingham.ac.uk.147575"
"compute024.int.augusta.nottingham.ac.uk.147576"
"compute024.int.augusta.nottingham.ac.uk.147577"
"compute024.int.augusta.nottingham.ac.uk.147578"
"compute024.int.augusta.nottingham.ac.uk.147579"
"compute024.int.augusta.nottingham.ac.uk.147580"
"compute024.int.augusta.nottingham.ac.uk.147581"
"compute024.int.augusta.nottingham.ac.uk.147582"
"compute024.int.augusta.nottingham.ac.uk.147583"
"compute049.int.augusta.nottingham.ac.uk.88720"
"compute049.int.augusta.nottingham.ac.uk.88721"
"compute049.int.augusta.nottingham.ac.uk.88722"
"compute049.int.augusta.nottingham.ac.uk.88723"
"compute049.int.augusta.nottingham.ac.uk.88724"
"compute049.int.augusta.nottingham.ac.uk.88725"
"compute049.int.augusta.nottingham.ac.uk.88726"
"compute049.int.augusta.nottingham.ac.uk.88727"
"compute049.int.augusta.nottingham.ac.uk.88728"
"compute049.int.augusta.nottingham.ac.uk.88729"
"compute049.int.augusta.nottingham.ac.uk.88730"
"compute049.int.augusta.nottingham.ac.uk.88731"
"compute050.int.augusta.nottingham.ac.uk.21736"
"compute050.int.augusta.nottingham.ac.uk.21737"
"compute050.int.augusta.nottingham.ac.uk.21738"
"compute050.int.augusta.nottingham.ac.uk.21739"
"compute050.int.augusta.nottingham.ac.uk.21740"
"compute050.int.augusta.nottingham.ac.uk.21741"
"compute050.int.augusta.nottingham.ac.uk.21784"
"compute050.int.augusta.nottingham.ac.uk.21785"
"compute050.int.augusta.nottingham.ac.uk.21786"
"compute050.int.augusta.nottingham.ac.uk.21787"
"compute050.int.augusta.nottingham.ac.uk.21788"
"compute050.int.augusta.nottingham.ac.uk.21789"
"compute051.int.augusta.nottingham.ac.uk.9205"
"compute051.int.augusta.nottingham.ac.uk.9206"
"compute051.int.augusta.nottingham.ac.uk.9207"
"compute051.int.augusta.nottingham.ac.uk.9208"
"compute051.int.augusta.nottingham.ac.uk.9209"
"compute051.int.augusta.nottingham.ac.uk.9210"
"compute051.int.augusta.nottingham.ac.uk.9211"
"compute051.int.augusta.nottingham.ac.uk.9212"
"compute051.int.augusta.nottingham.ac.uk.9213"
"compute051.int.augusta.nottingham.ac.uk.9214"
"compute051.int.augusta.nottingham.ac.uk.9215"
"compute051.int.augusta.nottingham.ac.uk.9216"
"compute052.int.augusta.nottingham.ac.uk.30808"
"compute052.int.augusta.nottingham.ac.uk.30809"
"compute052.int.augusta.nottingham.ac.uk.30810"
"compute052.int.augusta.nottingham.ac.uk.30811"
"compute052.int.augusta.nottingham.ac.uk.30812"
"compute052.int.augusta.nottingham.ac.uk.30813"
"compute052.int.augusta.nottingham.ac.uk.30814"
"compute052.int.augusta.nottingham.ac.uk.30815"
"compute052.int.augusta.nottingham.ac.uk.30816"
"compute052.int.augusta.nottingham.ac.uk.30817"
"compute052.int.augusta.nottingham.ac.uk.30818"
"compute052.int.augusta.nottingham.ac.uk.30819"
)

Pstream initialized with:
    floatTransfer      : 0
    nProcsSimpleSum    : 0
    commsType          : nonBlocking
    polling iterations : 0
sigFpe : Enabling floating point exception trapping (FOAM_SIGFPE).
fileModificationChecking : Monitoring run-time modified files using timeStampMaster (fileModificationSkew 10)
allowSystemOperations : Allowing user-supplied system call operations

// * * * * * * * * * * * * * * * * * * * * * * * * * * * * * * * * * * * * * //
Create time

Create mesh for time = 0


SIMPLE: Convergence criteria found
        p: tolerance 1e-10
        c: tolerance 1e-10


Reading g

Reading field p

Reading transportProperties

Reading field K

Reading/calculating face flux field phi

No finite volume options present

Starting time loop

Time = 100

DICPBiCGStab:  Solving for p, Initial residual = 1, Final residual = 9.6644e-07, No Iterations 501
Mean velocity  = (0.000273321 1.48838e-07 1.13263e-06)

ExecutionTime = 8.32 s  ClockTime = 8 s

Time = 200

DICPBiCGStab:  Solving for p, Initial residual = 5.12367e-07, Final residual = 4.40975e-13, No Iterations 403
Mean velocity  = (0.000273324 1.5024e-07 1.13147e-06)

ExecutionTime = 12.26 s  ClockTime = 12 s

Time = 300

DICPBiCGStab:  Solving for p, Initial residual = 5.0836e-13, Final residual = 4.52373e-16, No Iterations 247
Mean velocity  = (0.000273324 1.5024e-07 1.13147e-06)

ExecutionTime = 14.72 s  ClockTime = 14 s


SIMPLE solution converged in 300 iterations

End

Finalising parallel run
/*---------------------------------------------------------------------------*\
  =========                 |
  \\      /  F ield         | OpenFOAM: The Open Source CFD Toolbox
   \\    /   O peration     | Website:  https://openfoam.org
    \\  /    A nd           | Version:  8
     \\/     M anipulation  |
\*---------------------------------------------------------------------------*/
Build  : 8
Exec   : macroScalarTransport -parallel
Date   : Nov 04 2022
Time   : 17:32:17
Host   : "compute014.int.augusta.nottingham.ac.uk"
PID    : 77318
I/O    : uncollated
Case   : /gpfs01/home/pmxep5/PGSFlowTransport/tutorials/RESULTS/Herten/varMecDisp1e-3alpha
nProcs : 96
Slaves : 
95
(
"compute014.int.augusta.nottingham.ac.uk.77319"
"compute014.int.augusta.nottingham.ac.uk.77320"
"compute014.int.augusta.nottingham.ac.uk.77321"
"compute014.int.augusta.nottingham.ac.uk.77322"
"compute014.int.augusta.nottingham.ac.uk.77323"
"compute014.int.augusta.nottingham.ac.uk.77324"
"compute014.int.augusta.nottingham.ac.uk.77325"
"compute014.int.augusta.nottingham.ac.uk.77326"
"compute014.int.augusta.nottingham.ac.uk.77327"
"compute014.int.augusta.nottingham.ac.uk.77328"
"compute014.int.augusta.nottingham.ac.uk.77329"
"compute022.int.augusta.nottingham.ac.uk.84018"
"compute022.int.augusta.nottingham.ac.uk.84019"
"compute022.int.augusta.nottingham.ac.uk.84020"
"compute022.int.augusta.nottingham.ac.uk.84021"
"compute022.int.augusta.nottingham.ac.uk.84022"
"compute022.int.augusta.nottingham.ac.uk.84023"
"compute022.int.augusta.nottingham.ac.uk.84024"
"compute022.int.augusta.nottingham.ac.uk.84025"
"compute022.int.augusta.nottingham.ac.uk.84026"
"compute022.int.augusta.nottingham.ac.uk.84027"
"compute022.int.augusta.nottingham.ac.uk.84028"
"compute022.int.augusta.nottingham.ac.uk.84029"
"compute023.int.augusta.nottingham.ac.uk.211690"
"compute023.int.augusta.nottingham.ac.uk.211691"
"compute023.int.augusta.nottingham.ac.uk.211692"
"compute023.int.augusta.nottingham.ac.uk.211693"
"compute023.int.augusta.nottingham.ac.uk.211694"
"compute023.int.augusta.nottingham.ac.uk.211695"
"compute023.int.augusta.nottingham.ac.uk.211696"
"compute023.int.augusta.nottingham.ac.uk.211697"
"compute023.int.augusta.nottingham.ac.uk.211698"
"compute023.int.augusta.nottingham.ac.uk.211699"
"compute023.int.augusta.nottingham.ac.uk.211700"
"compute023.int.augusta.nottingham.ac.uk.211702"
"compute024.int.augusta.nottingham.ac.uk.147741"
"compute024.int.augusta.nottingham.ac.uk.147742"
"compute024.int.augusta.nottingham.ac.uk.147743"
"compute024.int.augusta.nottingham.ac.uk.147744"
"compute024.int.augusta.nottingham.ac.uk.147745"
"compute024.int.augusta.nottingham.ac.uk.147746"
"compute024.int.augusta.nottingham.ac.uk.147747"
"compute024.int.augusta.nottingham.ac.uk.147748"
"compute024.int.augusta.nottingham.ac.uk.147749"
"compute024.int.augusta.nottingham.ac.uk.147750"
"compute024.int.augusta.nottingham.ac.uk.147751"
"compute024.int.augusta.nottingham.ac.uk.147752"
"compute049.int.augusta.nottingham.ac.uk.106790"
"compute049.int.augusta.nottingham.ac.uk.106791"
"compute049.int.augusta.nottingham.ac.uk.106792"
"compute049.int.augusta.nottingham.ac.uk.106793"
"compute049.int.augusta.nottingham.ac.uk.106794"
"compute049.int.augusta.nottingham.ac.uk.106795"
"compute049.int.augusta.nottingham.ac.uk.106796"
"compute049.int.augusta.nottingham.ac.uk.106797"
"compute049.int.augusta.nottingham.ac.uk.106798"
"compute049.int.augusta.nottingham.ac.uk.106799"
"compute049.int.augusta.nottingham.ac.uk.106800"
"compute049.int.augusta.nottingham.ac.uk.106801"
"compute050.int.augusta.nottingham.ac.uk.41848"
"compute050.int.augusta.nottingham.ac.uk.41849"
"compute050.int.augusta.nottingham.ac.uk.41850"
"compute050.int.augusta.nottingham.ac.uk.41851"
"compute050.int.augusta.nottingham.ac.uk.41852"
"compute050.int.augusta.nottingham.ac.uk.41853"
"compute050.int.augusta.nottingham.ac.uk.41854"
"compute050.int.augusta.nottingham.ac.uk.41855"
"compute050.int.augusta.nottingham.ac.uk.41856"
"compute050.int.augusta.nottingham.ac.uk.41857"
"compute050.int.augusta.nottingham.ac.uk.41858"
"compute050.int.augusta.nottingham.ac.uk.41859"
"compute051.int.augusta.nottingham.ac.uk.9418"
"compute051.int.augusta.nottingham.ac.uk.9419"
"compute051.int.augusta.nottingham.ac.uk.9420"
"compute051.int.augusta.nottingham.ac.uk.9421"
"compute051.int.augusta.nottingham.ac.uk.9422"
"compute051.int.augusta.nottingham.ac.uk.9423"
"compute051.int.augusta.nottingham.ac.uk.9424"
"compute051.int.augusta.nottingham.ac.uk.9425"
"compute051.int.augusta.nottingham.ac.uk.9426"
"compute051.int.augusta.nottingham.ac.uk.9427"
"compute051.int.augusta.nottingham.ac.uk.9428"
"compute051.int.augusta.nottingham.ac.uk.9429"
"compute052.int.augusta.nottingham.ac.uk.47066"
"compute052.int.augusta.nottingham.ac.uk.47067"
"compute052.int.augusta.nottingham.ac.uk.47068"
"compute052.int.augusta.nottingham.ac.uk.47069"
"compute052.int.augusta.nottingham.ac.uk.47070"
"compute052.int.augusta.nottingham.ac.uk.47071"
"compute052.int.augusta.nottingham.ac.uk.47072"
"compute052.int.augusta.nottingham.ac.uk.47073"
"compute052.int.augusta.nottingham.ac.uk.47074"
"compute052.int.augusta.nottingham.ac.uk.47075"
"compute052.int.augusta.nottingham.ac.uk.47076"
"compute052.int.augusta.nottingham.ac.uk.47077"
)

Pstream initialized with:
    floatTransfer      : 0
    nProcsSimpleSum    : 0
    commsType          : nonBlocking
    polling iterations : 0
sigFpe : Enabling floating point exception trapping (FOAM_SIGFPE).
fileModificationChecking : Monitoring run-time modified files using timeStampMaster (fileModificationSkew 10)
allowSystemOperations : Allowing user-supplied system call operations

// * * * * * * * * * * * * * * * * * * * * * * * * * * * * * * * * * * * * * //
Create time

Create mesh for time = 0


SIMPLE: Convergence criteria found
        p: tolerance 1e-10
        c: tolerance 1e-10

Reading field c

Reading field U

Reading transportProperties

Reading diffusivity Dm

Reading outlet name

Reading porosity phi

Reading mechanical disp coeff alpha

Reading controlDict

Reading/calculating face flux field q

No finite volume options present

Calculating scalar transport

Courant Number mean: 0.583838 max: 8.06066
Mean vel = (0.000273324 1.5024e-07 1.13147e-06)

Adaptive time = 9.92457
DILUPBiCGStab:  Solving for c, Initial residual = 1, Final residual = 2.8932e-11, No Iterations 3
Total mass = 0.638767
Flux out = 0

Adaptive time = 19.8491
DILUPBiCGStab:  Solving for c, Initial residual = 0.201612, Final residual = 2.66011e-11, No Iterations 2
Total mass = 1.27657
Flux out = 1.67567e-193

Adaptive time = 29.7737
DILUPBiCGStab:  Solving for c, Initial residual = 0.112072, Final residual = 1.52212e-11, No Iterations 2
Total mass = 1.91332
Flux out = 2.6102e-191

Adaptive time = 39.6983
DILUPBiCGStab:  Solving for c, Initial residual = 0.0776312, Final residual = 1.09991e-11, No Iterations 2
Total mass = 2.54919
Flux out = 1.80797e-189

Adaptive time = 49.6229
DILUPBiCGStab:  Solving for c, Initial residual = 0.0594078, Final residual = 8.81989e-12, No Iterations 2
Total mass = 3.18438
Flux out = 8.1186e-188

Adaptive time = 59.5474
DILUPBiCGStab:  Solving for c, Initial residual = 0.0481342, Final residual = 7.56675e-12, No Iterations 2
Total mass = 3.81906
Flux out = 2.7168e-186

Adaptive time = 69.472
DILUPBiCGStab:  Solving for c, Initial residual = 0.0404723, Final residual = 6.66086e-12, No Iterations 2
Total mass = 4.45337
Flux out = 7.27718e-185

Adaptive time = 79.3966
DILUPBiCGStab:  Solving for c, Initial residual = 0.0349273, Final residual = 5.8727e-12, No Iterations 2
Total mass = 5.0874
Flux out = 1.62943e-183

Adaptive time = 89.3212
DILUPBiCGStab:  Solving for c, Initial residual = 0.0307262, Final residual = 5.0848e-12, No Iterations 2
Total mass = 5.72122
Flux out = 3.14022e-182

Adaptive time = 99.2457
DILUPBiCGStab:  Solving for c, Initial residual = 0.0274344, Final residual = 4.23282e-12, No Iterations 2
Total mass = 6.35488
Flux out = 5.31977e-181

Adaptive time = 109.17
DILUPBiCGStab:  Solving for c, Initial residual = 0.0247843, Final residual = 3.38306e-12, No Iterations 2
Total mass = 6.98842
Flux out = 8.04962e-180

Adaptive time = 119.095
DILUPBiCGStab:  Solving for c, Initial residual = 0.0226054, Final residual = 2.64856e-12, No Iterations 2
Total mass = 7.62187
Flux out = 1.1017e-178

Adaptive time = 129.019
DILUPBiCGStab:  Solving for c, Initial residual = 0.0207815, Final residual = 2.0792e-12, No Iterations 2
Total mass = 8.25525
Flux out = 1.37771e-177

Adaptive time = 138.944
DILUPBiCGStab:  Solving for c, Initial residual = 0.0192327, Final residual = 1.7411e-12, No Iterations 2
Total mass = 8.88857
Flux out = 1.58744e-176

Adaptive time = 148.869
DILUPBiCGStab:  Solving for c, Initial residual = 0.0179009, Final residual = 1.69644e-12, No Iterations 2
Total mass = 9.52184
Flux out = 1.69721e-175

Adaptive time = 158.793
DILUPBiCGStab:  Solving for c, Initial residual = 0.0167437, Final residual = 1.67757e-12, No Iterations 2
Total mass = 10.1551
Flux out = 1.69384e-174

Adaptive time = 168.718
DILUPBiCGStab:  Solving for c, Initial residual = 0.0157286, Final residual = 1.63567e-12, No Iterations 2
Total mass = 10.7883
Flux out = 1.58621e-173

Adaptive time = 178.642
DILUPBiCGStab:  Solving for c, Initial residual = 0.0148308, Final residual = 1.57094e-12, No Iterations 2
Total mass = 11.4214
Flux out = 1.4001e-172

Adaptive time = 188.567
DILUPBiCGStab:  Solving for c, Initial residual = 0.0140314, Final residual = 1.49105e-12, No Iterations 2
Total mass = 12.0546
Flux out = 1.1695e-171

Adaptive time = 198.491
DILUPBiCGStab:  Solving for c, Initial residual = 0.0133148, Final residual = 1.40001e-12, No Iterations 2
Total mass = 12.6877
Flux out = 9.27724e-171

Adaptive time = 208.416
DILUPBiCGStab:  Solving for c, Initial residual = 0.0126688, Final residual = 1.30373e-12, No Iterations 2
Total mass = 13.3208
Flux out = 7.0113e-170

Adaptive time = 218.341
DILUPBiCGStab:  Solving for c, Initial residual = 0.0120835, Final residual = 1.20701e-12, No Iterations 2
Total mass = 13.9539
Flux out = 5.06272e-169

Adaptive time = 228.265
DILUPBiCGStab:  Solving for c, Initial residual = 0.0115508, Final residual = 1.114e-12, No Iterations 2
Total mass = 14.587
Flux out = 3.50193e-168

Adaptive time = 238.19
DILUPBiCGStab:  Solving for c, Initial residual = 0.0110638, Final residual = 1.02769e-12, No Iterations 2
Total mass = 15.2201
Flux out = 2.32599e-167

Adaptive time = 248.114
DILUPBiCGStab:  Solving for c, Initial residual = 0.0106168, Final residual = 9.51517e-13, No Iterations 2
Total mass = 15.8531
Flux out = 1.48675e-166

Adaptive time = 258.039
DILUPBiCGStab:  Solving for c, Initial residual = 0.010205, Final residual = 8.86882e-13, No Iterations 2
Total mass = 16.4862
Flux out = 9.16406e-166

Adaptive time = 267.963
DILUPBiCGStab:  Solving for c, Initial residual = 0.00982469, Final residual = 8.38693e-13, No Iterations 2
Total mass = 17.1192
Flux out = 5.45737e-165

Adaptive time = 277.888
DILUPBiCGStab:  Solving for c, Initial residual = 0.00947217, Final residual = 8.21014e-13, No Iterations 2
Total mass = 17.7523
Flux out = 3.14558e-164

Adaptive time = 287.813
DILUPBiCGStab:  Solving for c, Initial residual = 0.00914452, Final residual = 8.59114e-13, No Iterations 2
Total mass = 18.3853
Flux out = 1.75783e-163

Adaptive time = 297.737
DILUPBiCGStab:  Solving for c, Initial residual = 0.00883924, Final residual = 9.23181e-13, No Iterations 2
Total mass = 19.0183
Flux out = 9.53917e-163

Adaptive time = 307.662
DILUPBiCGStab:  Solving for c, Initial residual = 0.00855403, Final residual = 1.00632e-12, No Iterations 2
Total mass = 19.6514
Flux out = 5.03468e-162

Adaptive time = 317.586
DILUPBiCGStab:  Solving for c, Initial residual = 0.00828711, Final residual = 1.10646e-12, No Iterations 2
Total mass = 20.2844
Flux out = 2.58826e-161

Adaptive time = 327.511
DILUPBiCGStab:  Solving for c, Initial residual = 0.00803671, Final residual = 1.21852e-12, No Iterations 2
Total mass = 20.9174
Flux out = 1.29792e-160

Adaptive time = 337.435
DILUPBiCGStab:  Solving for c, Initial residual = 0.0078013, Final residual = 1.33596e-12, No Iterations 2
Total mass = 21.5504
Flux out = 6.35774e-160

Adaptive time = 347.36
DILUPBiCGStab:  Solving for c, Initial residual = 0.00757965, Final residual = 1.45425e-12, No Iterations 2
Total mass = 22.1834
Flux out = 3.04635e-159

Adaptive time = 357.285
DILUPBiCGStab:  Solving for c, Initial residual = 0.00737051, Final residual = 1.57101e-12, No Iterations 2
Total mass = 22.8164
Flux out = 1.4298e-158

Adaptive time = 367.209
DILUPBiCGStab:  Solving for c, Initial residual = 0.00717284, Final residual = 1.68106e-12, No Iterations 2
Total mass = 23.4494
Flux out = 6.58233e-158

Adaptive time = 377.134
DILUPBiCGStab:  Solving for c, Initial residual = 0.00698583, Final residual = 1.78311e-12, No Iterations 2
Total mass = 24.0824
Flux out = 2.97633e-157

Adaptive time = 387.058
DILUPBiCGStab:  Solving for c, Initial residual = 0.00680855, Final residual = 1.87594e-12, No Iterations 2
Total mass = 24.7154
Flux out = 1.32362e-156

Adaptive time = 396.983
DILUPBiCGStab:  Solving for c, Initial residual = 0.00664026, Final residual = 1.95977e-12, No Iterations 2
Total mass = 25.3484
Flux out = 5.79707e-156

Adaptive time = 406.908
DILUPBiCGStab:  Solving for c, Initial residual = 0.00648038, Final residual = 2.03514e-12, No Iterations 2
Total mass = 25.9814
Flux out = 2.50374e-155

Adaptive time = 416.832
DILUPBiCGStab:  Solving for c, Initial residual = 0.00632821, Final residual = 2.10483e-12, No Iterations 2
Total mass = 26.6144
Flux out = 1.06774e-154

Adaptive time = 426.757
DILUPBiCGStab:  Solving for c, Initial residual = 0.00618319, Final residual = 2.17046e-12, No Iterations 2
Total mass = 27.2474
Flux out = 4.5018e-154

Adaptive time = 436.681
DILUPBiCGStab:  Solving for c, Initial residual = 0.00604493, Final residual = 2.23501e-12, No Iterations 2
Total mass = 27.8803
Flux out = 1.87877e-153

Adaptive time = 446.606
DILUPBiCGStab:  Solving for c, Initial residual = 0.0059129, Final residual = 2.30158e-12, No Iterations 2
Total mass = 28.5133
Flux out = 7.76996e-153

Adaptive time = 456.53
DILUPBiCGStab:  Solving for c, Initial residual = 0.00578665, Final residual = 2.37425e-12, No Iterations 2
Total mass = 29.1463
Flux out = 3.18773e-152

Adaptive time = 466.455
DILUPBiCGStab:  Solving for c, Initial residual = 0.0056659, Final residual = 2.45789e-12, No Iterations 2
Total mass = 29.7793
Flux out = 1.29859e-151

Adaptive time = 476.38
DILUPBiCGStab:  Solving for c, Initial residual = 0.00555023, Final residual = 2.55794e-12, No Iterations 2
Total mass = 30.4123
Flux out = 5.25728e-151

Adaptive time = 486.304
DILUPBiCGStab:  Solving for c, Initial residual = 0.00543931, Final residual = 2.67863e-12, No Iterations 2
Total mass = 31.0453
Flux out = 2.11671e-150

Adaptive time = 496.229
DILUPBiCGStab:  Solving for c, Initial residual = 0.00533294, Final residual = 2.82559e-12, No Iterations 2
Total mass = 31.6782
Flux out = 8.4808e-150

Adaptive time = 506.153
DILUPBiCGStab:  Solving for c, Initial residual = 0.00523077, Final residual = 3.00369e-12, No Iterations 2
Total mass = 32.3112
Flux out = 3.38303e-149

Adaptive time = 516.078
DILUPBiCGStab:  Solving for c, Initial residual = 0.00513255, Final residual = 3.21615e-12, No Iterations 2
Total mass = 32.9442
Flux out = 1.34413e-148

Adaptive time = 526.002
DILUPBiCGStab:  Solving for c, Initial residual = 0.00503814, Final residual = 3.46235e-12, No Iterations 2
Total mass = 33.5772
Flux out = 5.32078e-148

Adaptive time = 535.927
DILUPBiCGStab:  Solving for c, Initial residual = 0.00494726, Final residual = 3.73508e-12, No Iterations 2
Total mass = 34.2101
Flux out = 2.09902e-147

Adaptive time = 545.852
DILUPBiCGStab:  Solving for c, Initial residual = 0.00485969, Final residual = 4.01815e-12, No Iterations 2
Total mass = 34.8431
Flux out = 8.25369e-147

Adaptive time = 555.776
DILUPBiCGStab:  Solving for c, Initial residual = 0.00477532, Final residual = 4.28563e-12, No Iterations 2
Total mass = 35.4761
Flux out = 3.23547e-146

Adaptive time = 565.701
DILUPBiCGStab:  Solving for c, Initial residual = 0.00469394, Final residual = 4.50644e-12, No Iterations 2
Total mass = 36.1091
Flux out = 1.26457e-145

Adaptive time = 575.625
DILUPBiCGStab:  Solving for c, Initial residual = 0.00461537, Final residual = 4.65948e-12, No Iterations 2
Total mass = 36.742
Flux out = 4.92852e-145

Adaptive time = 585.55
DILUPBiCGStab:  Solving for c, Initial residual = 0.00453952, Final residual = 4.73555e-12, No Iterations 2
Total mass = 37.375
Flux out = 1.91565e-144

Adaptive time = 595.474
DILUPBiCGStab:  Solving for c, Initial residual = 0.00446623, Final residual = 4.75367e-12, No Iterations 2
Total mass = 38.008
Flux out = 7.42663e-144

Adaptive time = 605.399
DILUPBiCGStab:  Solving for c, Initial residual = 0.00439534, Final residual = 4.75926e-12, No Iterations 2
Total mass = 38.6409
Flux out = 2.87212e-143

Adaptive time = 615.324
DILUPBiCGStab:  Solving for c, Initial residual = 0.00432678, Final residual = 4.90428e-12, No Iterations 2
Total mass = 39.2739
Flux out = 1.10816e-142

Adaptive time = 625.248
DILUPBiCGStab:  Solving for c, Initial residual = 0.00426044, Final residual = 5.1135e-12, No Iterations 2
Total mass = 39.9069
Flux out = 4.26631e-142

Adaptive time = 635.173
DILUPBiCGStab:  Solving for c, Initial residual = 0.00419617, Final residual = 5.34384e-12, No Iterations 2
Total mass = 40.5398
Flux out = 1.63911e-141

Adaptive time = 645.097
DILUPBiCGStab:  Solving for c, Initial residual = 0.00413391, Final residual = 5.57748e-12, No Iterations 2
Total mass = 41.1728
Flux out = 6.28527e-141

Adaptive time = 655.022
DILUPBiCGStab:  Solving for c, Initial residual = 0.00407356, Final residual = 5.79641e-12, No Iterations 2
Total mass = 41.8058
Flux out = 2.40576e-140

Adaptive time = 664.946
DILUPBiCGStab:  Solving for c, Initial residual = 0.00401501, Final residual = 5.96253e-12, No Iterations 2
Total mass = 42.4387
Flux out = 9.19272e-140

Adaptive time = 674.871
DILUPBiCGStab:  Solving for c, Initial residual = 0.00395822, Final residual = 5.97321e-12, No Iterations 2
Total mass = 43.0717
Flux out = 3.50704e-139

Adaptive time = 684.796
DILUPBiCGStab:  Solving for c, Initial residual = 0.00390311, Final residual = 5.79312e-12, No Iterations 2
Total mass = 43.7047
Flux out = 1.33593e-138

Adaptive time = 694.72
DILUPBiCGStab:  Solving for c, Initial residual = 0.00384956, Final residual = 8.03061e-12, No Iterations 2
Total mass = 44.3376
Flux out = 5.08166e-138

Adaptive time = 704.645
DILUPBiCGStab:  Solving for c, Initial residual = 0.00379753, Final residual = 1.3949e-11, No Iterations 2
Total mass = 44.9706
Flux out = 1.93036e-137

Adaptive time = 714.569
DILUPBiCGStab:  Solving for c, Initial residual = 0.00374698, Final residual = 2.40141e-11, No Iterations 2
Total mass = 45.6035
Flux out = 7.32332e-137

Adaptive time = 724.494
DILUPBiCGStab:  Solving for c, Initial residual = 0.00369781, Final residual = 3.87773e-11, No Iterations 2
Total mass = 46.2365
Flux out = 2.77484e-136

Adaptive time = 734.418
DILUPBiCGStab:  Solving for c, Initial residual = 0.00364999, Final residual = 5.99481e-11, No Iterations 2
Total mass = 46.8695
Flux out = 1.05014e-135

Adaptive time = 744.343
DILUPBiCGStab:  Solving for c, Initial residual = 0.00360347, Final residual = 9.05971e-11, No Iterations 2
Total mass = 47.5024
Flux out = 3.96966e-135

Adaptive time = 754.268
DILUPBiCGStab:  Solving for c, Initial residual = 0.00355817, Final residual = 4.13054e-13, No Iterations 3
Total mass = 48.1354
Flux out = 1.49889e-134

Adaptive time = 764.192
DILUPBiCGStab:  Solving for c, Initial residual = 0.00351405, Final residual = 4.04089e-13, No Iterations 3
Total mass = 48.7684
Flux out = 5.65333e-134

Adaptive time = 774.117
DILUPBiCGStab:  Solving for c, Initial residual = 0.00347109, Final residual = 3.93676e-13, No Iterations 3
Total mass = 49.4013
Flux out = 2.12994e-133

Adaptive time = 784.041
DILUPBiCGStab:  Solving for c, Initial residual = 0.00342922, Final residual = 3.81913e-13, No Iterations 3
Total mass = 50.0343
Flux out = 8.01612e-133

Adaptive time = 793.966
DILUPBiCGStab:  Solving for c, Initial residual = 0.0033884, Final residual = 3.61348e-13, No Iterations 3
Total mass = 50.6672
Flux out = 3.01364e-132

Adaptive time = 803.89
DILUPBiCGStab:  Solving for c, Initial residual = 0.00334861, Final residual = 3.21518e-13, No Iterations 3
Total mass = 51.3002
Flux out = 1.13174e-131

Adaptive time = 813.815
DILUPBiCGStab:  Solving for c, Initial residual = 0.00330979, Final residual = 2.56204e-13, No Iterations 3
Total mass = 51.9332
Flux out = 4.24541e-131

Adaptive time = 823.74
DILUPBiCGStab:  Solving for c, Initial residual = 0.00327191, Final residual = 1.60063e-13, No Iterations 3
Total mass = 52.5661
Flux out = 1.59072e-130

Adaptive time = 833.664
DILUPBiCGStab:  Solving for c, Initial residual = 0.00323494, Final residual = 1.08846e-13, No Iterations 3
Total mass = 53.1991
Flux out = 5.95319e-130

Adaptive time = 843.589
DILUPBiCGStab:  Solving for c, Initial residual = 0.00319886, Final residual = 1.93713e-13, No Iterations 3
Total mass = 53.832
Flux out = 2.22514e-129

Adaptive time = 853.513
DILUPBiCGStab:  Solving for c, Initial residual = 0.00316361, Final residual = 2.82748e-13, No Iterations 3
Total mass = 54.465
Flux out = 8.30585e-129

Adaptive time = 863.438
DILUPBiCGStab:  Solving for c, Initial residual = 0.00312919, Final residual = 3.49654e-13, No Iterations 3
Total mass = 55.098
Flux out = 3.09591e-128

Adaptive time = 873.362
DILUPBiCGStab:  Solving for c, Initial residual = 0.00309556, Final residual = 3.91578e-13, No Iterations 3
Total mass = 55.7309
Flux out = 1.15218e-127

Adaptive time = 883.287
DILUPBiCGStab:  Solving for c, Initial residual = 0.00306269, Final residual = 4.11993e-13, No Iterations 3
Total mass = 56.3639
Flux out = 4.28084e-127

Adaptive time = 893.212
DILUPBiCGStab:  Solving for c, Initial residual = 0.00303055, Final residual = 4.16082e-13, No Iterations 3
Total mass = 56.9968
Flux out = 1.58764e-126

Adaptive time = 903.136
DILUPBiCGStab:  Solving for c, Initial residual = 0.00299913, Final residual = 4.0988e-13, No Iterations 3
Total mass = 57.6298
Flux out = 5.87662e-126

Adaptive time = 913.061
DILUPBiCGStab:  Solving for c, Initial residual = 0.0029684, Final residual = 3.98217e-13, No Iterations 3
Total mass = 58.2627
Flux out = 2.17062e-125

Adaptive time = 922.985
DILUPBiCGStab:  Solving for c, Initial residual = 0.00293833, Final residual = 3.84185e-13, No Iterations 3
Total mass = 58.8957
Flux out = 7.99921e-125

Adaptive time = 932.91
DILUPBiCGStab:  Solving for c, Initial residual = 0.00290891, Final residual = 3.69877e-13, No Iterations 3
Total mass = 59.5287
Flux out = 2.94064e-124

Adaptive time = 942.834
DILUPBiCGStab:  Solving for c, Initial residual = 0.00288012, Final residual = 3.56596e-13, No Iterations 3
Total mass = 60.1616
Flux out = 1.07818e-123

Adaptive time = 952.759
DILUPBiCGStab:  Solving for c, Initial residual = 0.00285193, Final residual = 3.44958e-13, No Iterations 3
Total mass = 60.7946
Flux out = 3.94195e-123

Adaptive time = 962.684
DILUPBiCGStab:  Solving for c, Initial residual = 0.00282432, Final residual = 3.35246e-13, No Iterations 3
Total mass = 61.4275
Flux out = 1.4369e-122

Adaptive time = 972.608
DILUPBiCGStab:  Solving for c, Initial residual = 0.00279729, Final residual = 3.27551e-13, No Iterations 3
Total mass = 62.0605
Flux out = 5.22099e-122

Adaptive time = 982.533
DILUPBiCGStab:  Solving for c, Initial residual = 0.00277081, Final residual = 3.2179e-13, No Iterations 3
Total mass = 62.6934
Flux out = 1.89067e-121

Adaptive time = 992.457
DILUPBiCGStab:  Solving for c, Initial residual = 0.00274485, Final residual = 3.17899e-13, No Iterations 3
Total mass = 63.3264
Flux out = 6.82238e-121

Adaptive time = 1002.38
DILUPBiCGStab:  Solving for c, Initial residual = 0.00271943, Final residual = 3.15802e-13, No Iterations 3
Total mass = 63.9594
Flux out = 2.45267e-120

Adaptive time = 1012.31
DILUPBiCGStab:  Solving for c, Initial residual = 0.0026945, Final residual = 3.15415e-13, No Iterations 3
Total mass = 64.5923
Flux out = 8.78326e-120

Adaptive time = 1022.23
DILUPBiCGStab:  Solving for c, Initial residual = 0.00267006, Final residual = 3.16631e-13, No Iterations 3
Total mass = 65.2253
Flux out = 3.13268e-119

Adaptive time = 1032.16
DILUPBiCGStab:  Solving for c, Initial residual = 0.00264609, Final residual = 3.19307e-13, No Iterations 3
Total mass = 65.8582
Flux out = 1.11264e-118

Adaptive time = 1042.08
DILUPBiCGStab:  Solving for c, Initial residual = 0.00262259, Final residual = 3.23283e-13, No Iterations 3
Total mass = 66.4912
Flux out = 3.93468e-118

Adaptive time = 1052
DILUPBiCGStab:  Solving for c, Initial residual = 0.00259953, Final residual = 3.28219e-13, No Iterations 3
Total mass = 67.1241
Flux out = 1.38524e-117

Adaptive time = 1061.93
DILUPBiCGStab:  Solving for c, Initial residual = 0.0025769, Final residual = 3.33662e-13, No Iterations 3
Total mass = 67.7571
Flux out = 4.85455e-117

Adaptive time = 1071.85
DILUPBiCGStab:  Solving for c, Initial residual = 0.00255471, Final residual = 3.39098e-13, No Iterations 3
Total mass = 68.3901
Flux out = 1.69328e-116

Adaptive time = 1081.78
DILUPBiCGStab:  Solving for c, Initial residual = 0.00253292, Final residual = 3.43903e-13, No Iterations 3
Total mass = 69.023
Flux out = 5.87792e-116

Adaptive time = 1091.7
DILUPBiCGStab:  Solving for c, Initial residual = 0.00251153, Final residual = 3.47439e-13, No Iterations 3
Total mass = 69.656
Flux out = 2.03043e-115

Adaptive time = 1101.63
DILUPBiCGStab:  Solving for c, Initial residual = 0.00249053, Final residual = 3.49133e-13, No Iterations 3
Total mass = 70.2889
Flux out = 6.97887e-115

Adaptive time = 1111.55
DILUPBiCGStab:  Solving for c, Initial residual = 0.00246991, Final residual = 3.48617e-13, No Iterations 3
Total mass = 70.9219
Flux out = 2.38661e-114

Adaptive time = 1121.48
DILUPBiCGStab:  Solving for c, Initial residual = 0.00244965, Final residual = 3.4579e-13, No Iterations 3
Total mass = 71.5548
Flux out = 8.11984e-114

Adaptive time = 1131.4
DILUPBiCGStab:  Solving for c, Initial residual = 0.00242976, Final residual = 3.40796e-13, No Iterations 3
Total mass = 72.1878
Flux out = 2.74824e-113

Adaptive time = 1141.33
DILUPBiCGStab:  Solving for c, Initial residual = 0.00241022, Final residual = 3.34045e-13, No Iterations 3
Total mass = 72.8207
Flux out = 9.25295e-113

Adaptive time = 1151.25
DILUPBiCGStab:  Solving for c, Initial residual = 0.00239102, Final residual = 3.26159e-13, No Iterations 3
Total mass = 73.4537
Flux out = 3.09886e-112

Adaptive time = 1161.18
DILUPBiCGStab:  Solving for c, Initial residual = 0.00237214, Final residual = 3.17837e-13, No Iterations 3
Total mass = 74.0866
Flux out = 1.03229e-111

Adaptive time = 1171.1
DILUPBiCGStab:  Solving for c, Initial residual = 0.00235359, Final residual = 3.09724e-13, No Iterations 3
Total mass = 74.7196
Flux out = 3.42032e-111

Adaptive time = 1181.02
DILUPBiCGStab:  Solving for c, Initial residual = 0.00233536, Final residual = 3.02376e-13, No Iterations 3
Total mass = 75.3526
Flux out = 1.12715e-110

Adaptive time = 1190.95
DILUPBiCGStab:  Solving for c, Initial residual = 0.00231743, Final residual = 2.96181e-13, No Iterations 3
Total mass = 75.9855
Flux out = 3.69432e-110

Adaptive time = 1200.87
DILUPBiCGStab:  Solving for c, Initial residual = 0.00229981, Final residual = 2.9045e-13, No Iterations 3
Total mass = 76.6185
Flux out = 1.20426e-109

Adaptive time = 1210.8
DILUPBiCGStab:  Solving for c, Initial residual = 0.00228248, Final residual = 2.844e-13, No Iterations 3
Total mass = 77.2514
[...]
[26] 

[72]     in file macroScalarTransport.C at line 103.
[72] 
FOAM parallel run exiting
[72] [16] 
[16] 
[16] --> FOAM FATAL ERROR: 
[16] Concentration under the threshold
[16] 
[16] 
[16]     From function macroScalarTransport
[16]     in file macroScalarTransport.C at line 103.
[16] 
FOAM parallel run exiting
[16] 
[6] 
[6] 
[6] --> FOAM FATAL ERROR: 
[6] Concentration under the threshold
[6] 
[6] 
[6]     From function macroScalarTransport
[6]     in file macroScalarTransport.C at line 103.
[6] 
FOAM parallel run exiting
[6] 
[32] 
[18] 
[18] 
[18] --> FOAM FATAL ERROR: [10] 
[10] 
[10] --> FOAM FATAL ERROR: 
[10] Concentration under the threshold
[10] 
[10] 
[10]     From function macroScalarTransport
[10]     in file macroScalarTransport.C at line 103.
[10] 
FOAM parallel run exiting
[10] 

[18] Concentration under the threshold
[18] 
[18] 
[18]     From function macroScalarTransport
[18]     in file macroScalarTransport.C at line 103.
[18] 
FOAM parallel run exiting
[18] 

[32] 
[32] --> FOAM FATAL ERROR: 
[32] Concentration under the threshold
[32] 
[32] 
[32]     From function macroScalarTransport
[32]     in file macroScalarTransport.C at line 103.
[32] 
FOAM parallel run exiting
[32] 
[23] 
[23] 
[23] --> FOAM FATAL ERROR: [33] [82] 
[23] Concentration under the threshold
[23] 
[23] 
[23]     From function macroScalarTransport
[23]     in file macroScalarTransport.C at line 103.
[23] 
FOAM parallel run exiting
[23] 
[47] 
[33] 
[33] --> FOAM FATAL ERROR: 
[33] [74] 
[74] [19] 
[19] 
[19] --> FOAM FATAL ERROR: 
[19] Concentration under the threshold
[19] 
[19] 
[19]     From function macroScalarTransport
[19]     in file 
[47] 
[47] --> FOAM FATAL ERROR: 
[47] Concentration under the threshold
[47] 
[47] 
[47]     From function macroScalarTransport
[47]     in file Concentration under the threshold
[33] 
[33] 
[33]     From function macroScalarTransport
[33]     in file macroScalarTransport.C at line 103.
[82] 
[82] --> FOAM FATAL ERROR: 
[82] Concentration under the threshold
[82] 
[82] 
[82]     From function macroScalarTransport
[82]     in file macroScalarTransport.C at line macroScalarTransport.C at line 103.
[19] 
FOAM parallel run exiting
[19] 
macroScalarTransport.C at line 103.
[47] 
FOAM parallel run exiting
[47] 

[33] 
FOAM parallel run exiting
[33] 

[74] --> FOAM FATAL ERROR: 
[74] Concentration under the threshold
[74] 
[74] 
[74]     From function macroScalarTransport
[74]     in file macroScalarTransport.C at line 103.
[74] [43] [29] 
FOAM parallel run exiting
[74] 

[43] 

[29] 
[29] --> FOAM FATAL ERROR: 103.
[82] 
FOAM parallel run exiting
[82] 
[22] 
[22] 
[22] --> FOAM FATAL ERROR: 
[22] Concentration under the threshold
[43] --> FOAM FATAL ERROR: 
[43] Concentration under the threshold
[43] 
[43] 
[43]     From function macroScalarTransport
[43]     in file macroScalarTransport.C at line 103.
[43] 
FOAM parallel run exiting
[43] 

[29] Concentration under the threshold
[29] 
[29] 
[29]     From function macroScalarTransport
[75] [22] 
[22] 
[22]     From function macroScalarTransport
[22]     in file macroScalarTransport.C at line 103.
[22] 
FOAM parallel run exiting
[22] 
[4] 
[4] 
[4] --> FOAM FATAL ERROR: 
[4] Concentration under the threshold
[4] 
[4] 
[4]     From function [29]     in file macroScalarTransport.C at line 103.
[29] 
FOAM parallel run exiting
[29] 

[75] [20] 
[20] 
[20] --> FOAM FATAL ERROR: 
[20] macroScalarTransport
[4]     in file macroScalarTransport.C at line 103.
[4] 
FOAM parallel run exiting
[4] 
[35] 
[75] --> FOAM FATAL ERROR: 
[75] Concentration under the threshold
[75] 
[75] 
[75]     From function macroScalarTransport
[75] Concentration under the threshold
[20] 
[20] 
[20]     From function macroScalarTransport
[20]     in file macroScalarTransport.C at line 103.
[20] 
FOAM parallel run exiting
[20] 
    in file macroScalarTransport.C at line 103.
[75] 
FOAM parallel run exiting
[75] 

[35] 
[35] --> FOAM FATAL ERROR: 
[35] Concentration under the threshold
[35] 
[35] 
[35]     From function macroScalarTransport
[35]     in file macroScalarTransport.C[73] 
 at line 103.
[35] 
FOAM parallel run exiting
[35] 
[25] [73] 
[73] --> FOAM FATAL ERROR: 
[73] Concentration under the threshold
[73] 
[73] 
[73]     From function macroScalarTransport
[34] [73]     in file macroScalarTransport.C at line 103.
[73] 
FOAM parallel run exiting
[73] 

[25] 
[25] --> FOAM FATAL ERROR: 
[25] Concentration under the threshold
[25] 
[25] 
[25]     From function macroScalarTransport[77] 
[34] 
[34] --> FOAM FATAL ERROR: 
[34] Concentration under the threshold
[34] 
[34] 
[34]     From function macroScalarTransport
[34]     in file macroScalarTransport.C
[77] 
[77] --> FOAM FATAL ERROR: 
[12] 
[12] 
[12] --> FOAM FATAL ERROR: 
[12] 
[25]     in file macroScalarTransport.C at line 103.
[25] 
FOAM parallel run exiting
[25] 
[77] Concentration under the threshold
[77] 
[77] 
[77]     From function macroScalarTransport
[77]     in file macroScalarTransport.C at line Concentration under the threshold
[12] 
[12] 
[12]     From function macroScalarTransport
[12]     in file macroScalarTransport.C at line 103.
[12] 
FOAM parallel run exiting
[12] 
 at line 103.
[34] 
FOAM parallel run exiting
[34] 
103.
[77] 
FOAM parallel run exiting
[77] 
[78] 
[78] 
[78] --> FOAM FATAL ERROR: 
[78] Concentration under the threshold
[78] 
[78] 
[78]     From function macroScalarTransport
[78]     in file macroScalarTransport.C at line 103.
[78] 
FOAM parallel run exiting
[78] 
[81] 
[81] 
[81] --> FOAM FATAL ERROR: 
[81] Concentration under the threshold
[81] 
[81] 
[81]     From function macroScalarTransport
[81]     in file macroScalarTransport.C at line 103.
[81] 
FOAM parallel run exiting
[81] 
[79] 
[79] 
[79] --> FOAM FATAL ERROR: 
[79] Concentration under the threshold
[79] 
[79] 
[79]     From function macroScalarTransport
[79]     in file macroScalarTransport.C at line 103.
[79] 
FOAM parallel run exiting
[79] 
[83] 
[83] 
[83] --> FOAM FATAL ERROR: 
[83] Concentration under the threshold
[83] 
[83] 
[83]     From function macroScalarTransport
[83]     in file macroScalarTransport.C at line 103.
[83] 
FOAM parallel run exiting
[83] 
[13] 
[13] 
[13] --> FOAM FATAL ERROR: 
[13] Concentration under the threshold
[13] 
[13] 
[13]     From function macroScalarTransport
[13]     in file macroScalarTransport.C at line 103.
[13] 
FOAM parallel run exiting
[13] 
[21] 
[21] 
[21] --> FOAM FATAL ERROR: 
[21] Concentration under the threshold
[21] 
[21] 
[21]     From function macroScalarTransport
[21]     in file macroScalarTransport.C at line 103.
[21] 
FOAM parallel run exiting
[21] 
[17] 
[17] 
[17] --> FOAM FATAL ERROR: 
[17] Concentration under the threshold
[17] 
[17] 
[17]     From function macroScalarTransport
[17]     in file macroScalarTransport.C at line 103.
[17] 
FOAM parallel run exiting
[17] 
[57] 
[57] 
[57] --> FOAM FATAL ERROR: 
[57] Concentration under the threshold
[57] 
[57] 
[57]     From function macroScalarTransport
[57]     in file macroScalarTransport.C at line 103.
[57] 
FOAM parallel run exiting
[57] 
[41] 
[41] 
[41] --> FOAM FATAL ERROR: 
[41] Concentration under the threshold
[41] 
[41] 
[41]     From function macroScalarTransport
[41]     in file macroScalarTransport.C at line 103.
[41] 
FOAM parallel run exiting
[41] 
[56] 
[56] 
[56] --> FOAM FATAL ERROR: 
[56] Concentration under the threshold
[56] 
[56] 
[56]     From function macroScalarTransport
[56]     in file macroScalarTransport.C at line 103.
[56] 
FOAM parallel run exiting
[56] 
[5] 
[5] 
[5] --> FOAM FATAL ERROR: 
[5] Concentration under the threshold
[5] 
[5] 
[5]     From function macroScalarTransport
[5]     in file macroScalarTransport.C at line 103.
[5] 
FOAM parallel run exiting
[5] 
[38] 
[38] 
[38] --> FOAM FATAL ERROR: 
[38] Concentration under the threshold
[38] 
[38] 
[38]     From function macroScalarTransport
[38]     in file macroScalarTransport.C at line 103.
[38] 
FOAM parallel run exiting
[38] 
[51] 
[51] 
[51] --> FOAM FATAL ERROR: 
[51] Concentration under the threshold
[51] 
[51] 
[51]     From function macroScalarTransport
[51]     in file macroScalarTransport.C at line 103.
[51] 
FOAM parallel run exiting
[51] 
[59] [64] 
[64] 
[64] --> FOAM FATAL ERROR: 
[64] Concentration under the threshold
[64] 
[64] 
[64]     From function macroScalarTransport
[64]     in file macroScalarTransport.C at line 103.
[64] 
FOAM parallel run exiting
[64] 

[59] [46] 
[46] 
[46] --> FOAM FATAL ERROR: 
[46] Concentration under the threshold

[59] --> FOAM FATAL ERROR: 
[59] Concentration under the threshold
[59] 
[59] 
[59]     From function macroScalarTransport
[59]     in file macroScalarTransport.C at line 103.
[59] 
FOAM parallel run exiting
[59] 
[46] 
[46] 
[46]     From function macroScalarTransport
[46]     in file macroScalarTransport.C at line 103.
[46] 
FOAM parallel run exiting
[46] 
[48] 
[48] 
[48] --> FOAM FATAL ERROR: 
[48] Concentration under the threshold
[48] 
[48] 
[48]     From function macroScalarTransport
[48]     in file macroScalarTransport.C at line 103.
[48] 
FOAM parallel run exiting
[48] 
[52] 
[52] [68] 
[52] --> FOAM FATAL ERROR: 
[52] Concentration under the threshold
[52] 
[52] 
[52]     From function macroScalarTransport
[52]     in file macroScalarTransport.C at line 103
[68] 
[68] --> FOAM FATAL ERROR: 
[68] Concentration under the threshold
[68] 
[68] .
[52] 
FOAM parallel run exiting
[52] 

[68]     From function macroScalarTransport
[68]     in file macroScalarTransport.C at line 103.
[68] 
FOAM parallel run exiting
[68] 
[94] 
[94] 
[94] --> FOAM FATAL ERROR: 
[94] Concentration under the threshold
[94] 
[94] 
[94]     From function macroScalarTransport
[94]     in file macroScalarTransport.C at line 103.
[94] 
FOAM parallel run exiting
[94] 
[95] 
[95] 
[95] --> FOAM FATAL ERROR: 
[95] Concentration under the threshold
[95] 
[95] 
[95]     From function macroScalarTransport
[95]     in file macroScalarTransport.C at line 103.
[95] 
FOAM parallel run exiting
[95] 
[84] 
[84] 
[84] --> FOAM FATAL ERROR: 
[84] Concentration under the threshold
[84] 
[84] 
[84]     From function macroScalarTransport
[84]     in file macroScalarTransport.C at line 103.
[84] 
FOAM parallel run exiting
[84] 
[88] 
[88] 
[88] --> FOAM FATAL ERROR: 
[88] Concentration under the threshold
[88] 
[88] 
[88]     From function macroScalarTransport
[88]     in file macroScalarTransport.C at line 103.
[88] 
FOAM parallel run exiting
[88] 
[89] 
[89] 
[89] --> FOAM FATAL ERROR: 
[89] Concentration under the threshold
[89] 
[89] 
[89]     From function macroScalarTransport
[89]     in file macroScalarTransport.C at line 103.
[89] 
FOAM parallel run exiting
[89] 
[66] 
[66] 
[66] --> FOAM FATAL ERROR: 
[66] Concentration under the threshold
[66] 
[66] 
[66]     From function macroScalarTransport
[66]     in file macroScalarTransport.C at line [90] 
[90] 
[90] --> FOAM FATAL ERROR: 
[90] Concentration under the threshold
[90] 
[90] 
[90]     From function macroScalarTransport
[90]     in file macroScalarTransport.C at line 103.
[90] 
FOAM parallel run exiting
[90] 
[91] 
[91] 
[91] --> FOAM FATAL ERROR: 
[91] Concentration under the threshold
[91] 
[91] 
[91]     From function macroScalarTransport
[91]     in file macroScalarTransport.C at line 103.
[91] 
FOAM parallel run exiting
[91] 
103.
[66] 
FOAM parallel run exiting
[66] 
[92] 
[92] 
[92] --> FOAM FATAL ERROR: 
[92] Concentration under the threshold
[92] 
[92] 
[92]     From function macroScalarTransport
[92]     in file macroScalarTransport.C at line 103.
[92] 
FOAM parallel run exiting
[92] 
[67] [93] 
[93] 
[93] --> FOAM FATAL ERROR: 
[93] Concentration under the threshold
[93] 
[93] 
[93]     From function macroScalarTransport
[93]     in file macroScalarTransport.C at line 103.
[93] 
FOAM parallel run exiting
[93] 

[67] [87] 
[87] 
[87] --> FOAM FATAL ERROR: 
[87] Concentration under the threshold
[87] 
[87] 
[87]     From function macroScalarTransport
[87]     in file macroScalarTransport.C at line 103.
[87] 
FOAM parallel run exiting
[87] 

[67] --> FOAM FATAL ERROR: 
[67] Concentration under the threshold
[67] 
[67] 
[67]     From function macroScalarTransport
[67] [85] 
[85] 
    in file macroScalarTransport.C at line 103.
[67] 
FOAM parallel run exiting
[67] 
[85] --> FOAM FATAL ERROR: 
[85] Concentration under the threshold
[85] 
[85] 
[85]     From function macroScalarTransport
[85]     in file macroScalarTransport.C at line 103.
[85] 
FOAM parallel run exiting
[85] 
[53] 
[53] 
[53] --> FOAM FATAL ERROR: 
[53] Concentration under the threshold
[53] 
[53] 
[53]     From function macroScalarTransport
[53]     in file macroScalarTransport.C at line 103.
[53] 
FOAM parallel run exiting
[53] 
[65] 
[65] [54] 
[65] --> FOAM FATAL ERROR: 
[65] Concentration under the threshold
[65] 
[65] 
[65]     From function macroScalarTransport
[65]     in file macroScalarTransport.C
[54] 
[54] --> FOAM FATAL ERROR: 
[54] Concentration under the threshold
[54]  at line 103.
[65] 
FOAM parallel run exiting
[65] 

[54] 
[54]     From function macroScalarTransport
[54]     in file macroScalarTransport.C at line 103.
[54] 
FOAM parallel run exiting
[54] 
[70] 
[70] 
[70] --> FOAM FATAL ERROR: 
[70] Concentration under the threshold
[70] 
[70] 
[70]     From function macroScalarTransport
[70]     in file macroScalarTransport.C at line 103.
[70] 
FOAM parallel run exiting
[70] 
[71] 
[71] 
[71] --> FOAM FATAL ERROR: 
[71] Concentration under the threshold
[71] 
[71] 
[71]     From function macroScalarTransport
[71]     in file macroScalarTransport.C at line 103.
[71] 
FOAM parallel run exiting
[71] 
[69] 
[69] 
[69] --> FOAM FATAL ERROR: 
[69] Concentration under the threshold
[69] 
[69] 
[69]     From function macroScalarTransport
[69]     in file macroScalarTransport.C at line 103.
[69] 
FOAM parallel run exiting
[69] 
[28] 
[28] 
[28] --> FOAM FATAL ERROR: 
[28] Concentration under the threshold
[28] 
[28] 
[28]     From function macroScalarTransport
[28]     in file macroScalarTransport.C at line 103.
[28] 
FOAM parallel run exiting
[28] 
[27] 
[27] 
[27] --> FOAM FATAL ERROR: 
[27] Concentration under the threshold
[27] 
[27] 
[27]     From function macroScalarTransport
[27]     in file macroScalarTransport.C at line 103.
[27] 
FOAM parallel run exiting
[27] 
[31] 
[31] 
[31] --> FOAM FATAL ERROR: 
[31] Concentration under the threshold
[31] 
[31] 
[31]     From function macroScalarTransport
[31]     in file macroScalarTransport.C at line 103.
[31] 
FOAM parallel run exiting
[31] 
[55] 
[55] 
[55] --> FOAM FATAL ERROR: 
[55] Concentration under the threshold
[55] 
[55] 
[55]     From function macroScalarTransport
[55]     in file macroScalarTransport.C at line 103.
[55] 
FOAM parallel run exiting
[55] 
[44] 
[44] 
[44] --> FOAM FATAL ERROR: 
[44] Concentration under the threshold
[44] 
[44] 
[44]     From function macroScalarTransport
[44]     in file macroScalarTransport.C at line 103.
[44] 
FOAM parallel run exiting
[44] 
[61] 
[61] 
[61] --> FOAM FATAL ERROR: 
[61] Concentration under the threshold
[61] 
[61] 
[61]     From function macroScalarTransport
[61]     in file macroScalarTransport.C at line 103.
[61] 
FOAM parallel run exiting
[61] 
[62] 
[62] 
[62] --> FOAM FATAL ERROR: 
[62] Concentration under the threshold
[62] 
[62] 
[62]     From function macroScalarTransport
[62]     in file macroScalarTransport.C at line 103.
[62] 
FOAM parallel run exiting
[62] 
[63] 
[63] 
[63] --> FOAM FATAL ERROR: 
[63] Concentration under the threshold
[63] 
[63] 
[63]     From function macroScalarTransport
[63]     in file macroScalarTransport.C at line 103.
[63] 
FOAM parallel run exiting
[63] 
[60] 
[60] 
[60] --> FOAM FATAL ERROR: 
[60] Concentration under the threshold
[60] 
[60] 
[60]     From function macroScalarTransport
[60]     in file macroScalarTransport.C at line 103.
[60] 
FOAM parallel run exiting
[60] 
[58] 
[58] 
[58] --> FOAM FATAL ERROR: 
[58] Concentration under the threshold
[58] 
[58] 
[58]     From function macroScalarTransport
[58]     in file macroScalarTransport.C at line 103.
[58] 
FOAM parallel run exiting
[58] 
[50] 
[50] 
[50] --> FOAM FATAL ERROR: 
[50] Concentration under the threshold
[50] 
[50] 
[50]     From function macroScalarTransport
[50]     in file macroScalarTransport.C at line 103.
[50] 
FOAM parallel run exiting
[50] 
[2] 
[2] 
[2] --> FOAM FATAL ERROR: 
[2] Concentration under the threshold
[2] 
[2] 
[2]     From function macroScalarTransport
[2]     in file macroScalarTransport.C at line 103.
[2] 
FOAM parallel run exiting
[2] 
[8] 
[8] 
[8] --> FOAM FATAL ERROR: 
[8] Concentration under the threshold
[8] 
[8] 
[8]     From function macroScalarTransport
[8]     in file macroScalarTransport.C at line 103.
[8] 
FOAM parallel run exiting
[8] 
[45] 
[45] 
[45] --> FOAM FATAL ERROR: 
[45] Concentration under the threshold
[45] 
[45] 
[45]     From function macroScalarTransport
[45]     in file macroScalarTransport.C at line 103.
[45] 
FOAM parallel run exiting
[45] 
--------------------------------------------------------------------------
MPI_ABORT was invoked on rank 56 in communicator MPI COMMUNICATOR 3 SPLIT FROM 0
with errorcode 1.

NOTE: invoking MPI_ABORT causes Open MPI to kill all MPI processes.
You may or may not see output from other processes, depending on
exactly when Open MPI kills them.
--------------------------------------------------------------------------
[compute014.int.augusta.nottingham.ac.uk:77301] [[40730,0],0] ORTE_ERROR_LOG: Data unpack would read past end of buffer in file util/show_help.c at line 507
[compute014.int.augusta.nottingham.ac.uk:77301] PMIX ERROR: UNREACHABLE in file server/pmix_server.c at line 2193
[compute014.int.augusta.nottingham.ac.uk:77301] PMIX ERROR: UNREACHABLE in file server/pmix_server.c at line 2193
[compute014.int.augusta.nottingham.ac.uk:77301] PMIX ERROR: UNREACHABLE in file server/pmix_server.c at line 2193
[compute014.int.augusta.nottingham.ac.uk:77301] PMIX ERROR: UNREACHABLE in file server/pmix_server.c at line 2193
[compute014.int.augusta.nottingham.ac.uk:77301] PMIX ERROR: UNREACHABLE in file server/pmix_server.c at line 2193
[compute014.int.augusta.nottingham.ac.uk:77301] PMIX ERROR: UNREACHABLE in file server/pmix_server.c at line 2193
[compute014.int.augusta.nottingham.ac.uk:77301] PMIX ERROR: UNREACHABLE in file server/pmix_server.c at line 2193
[compute014.int.augusta.nottingham.ac.uk:77301] PMIX ERROR: UNREACHABLE in file server/pmix_server.c at line 2193
[compute014.int.augusta.nottingham.ac.uk:77301] PMIX ERROR: UNREACHABLE in file server/pmix_server.c at line 2193
[49] 
[49] 
[49] --> FOAM FATAL ERROR: 
[49] Concentration under the threshold
[49] 
[49] 
[49]     From function macroScalarTransport
[49]     in file macroScalarTransport.C at line 103.
[49] 
FOAM parallel run exiting
[49] 
[15] 
[15] 
[15] --> FOAM FATAL ERROR: 
[15] Concentration under the threshold
[15] 
[15] 
[15]     From function macroScalarTransport
[15]     in file macroScalarTransport.C at line 103.
[15] 
FOAM parallel run exiting
[15] 
[76] 
[76] [86] 
[86] 
[86] --> FOAM FATAL ERROR: 
[86] Concentration under the threshold
[86] 
[86] 
[86]     From function macroScalarTransport
[86]     in file macroScalarTransport.C at line 103.
[76] --> FOAM FATAL ERROR: 
[76] Concentration under the threshold
[76] 
[76] 
[76]     From function macroScalarTransport
[76]     in file macroScalarTransport.C at line 103.
[76] 
FOAM parallel run exiting

[86] 
FOAM parallel run exiting
[86] 
[76] 
[14] 
[14] 
[14] --> FOAM FATAL ERROR: 
[14] Concentration under the threshold
[14] 
[14] 
[14]     From function macroScalarTransport
[14]     in file macroScalarTransport.C at line 103.
[14] 
FOAM parallel run exiting
[14] 
[compute014.int.augusta.nottingham.ac.uk:77301] 94 more processes have sent help message help-mpi-api.txt / mpi-abort
[compute014.int.augusta.nottingham.ac.uk:77301] Set MCA parameter "orte_base_help_aggregate" to 0 to see all help / error messages
