/*---------------------------------------------------------------------------*\
  =========                 |
  \\      /  F ield         | OpenFOAM: The Open Source CFD Toolbox
   \\    /   O peration     | Website:  https://openfoam.org
    \\  /    A nd           | Version:  8
     \\/     M anipulation  |
\*---------------------------------------------------------------------------*/
Build  : 8
Exec   : blockMesh
Date   : Nov 03 2022
Time   : 13:27:59
Host   : "compute030.int.augusta.nottingham.ac.uk"
PID    : 73063
I/O    : uncollated
Case   : /gpfs01/home/pmxep5/PGSFlowTransport/tutorials/RESULTS/Herten/varMecDisp1e-2alpha
nProcs : 1
sigFpe : Enabling floating point exception trapping (FOAM_SIGFPE).
fileModificationChecking : Monitoring run-time modified files using timeStampMaster (fileModificationSkew 10)
allowSystemOperations : Allowing user-supplied system call operations

// * * * * * * * * * * * * * * * * * * * * * * * * * * * * * * * * * * * * * //
Create time

Creating block mesh from
    "system/blockMeshDict"
Creating block edges
No non-planar block faces defined
Creating topology blocks
Creating topology patches

Creating block mesh topology

Check topology

	Basic statistics
		Number of internal faces : 0
		Number of boundary faces : 6
		Number of defined boundary faces : 6
		Number of undefined boundary faces : 0
	Checking patch -> block consistency

Creating block offsets
Creating merge list .

Creating polyMesh from blockMesh
Creating patches
Creating cells
Creating points with scale 1
    Block 0 cell size :
        i : 0.05 .. 0.05
        j : 0.05 .. 0.05
        k : 0.05 .. 0.05

Writing polyMesh
----------------
Mesh Information
----------------
  boundingBox: (0 0 0) (16 10 7)
  nPoints: 9097461
  nCells: 8960000
  nFaces: 27016800
  nInternalFaces: 26743200
----------------
Patches
----------------
  patch 0 (start: 26743200 size: 28000) name: inlet
  patch 1 (start: 26771200 size: 28000) name: outlet
  patch 2 (start: 26799200 size: 64000) name: lowerWall
  patch 3 (start: 26863200 size: 64000) name: upperWall
  patch 4 (start: 26927200 size: 89600) name: frontAndBack

End

/*---------------------------------------------------------------------------*\
  =========                 |
  \\      /  F ield         | OpenFOAM: The Open Source CFD Toolbox
   \\    /   O peration     | Website:  https://openfoam.org
    \\  /    A nd           | Version:  8
     \\/     M anipulation  |
\*---------------------------------------------------------------------------*/
Build  : 8
Exec   : decomposePar
Date   : Nov 03 2022
Time   : 13:28:51
Host   : "compute030.int.augusta.nottingham.ac.uk"
PID    : 83226
I/O    : uncollated
Case   : /gpfs01/home/pmxep5/PGSFlowTransport/tutorials/RESULTS/Herten/varMecDisp1e-2alpha
nProcs : 1
sigFpe : Enabling floating point exception trapping (FOAM_SIGFPE).
fileModificationChecking : Monitoring run-time modified files using timeStampMaster (fileModificationSkew 10)
allowSystemOperations : Allowing user-supplied system call operations

// * * * * * * * * * * * * * * * * * * * * * * * * * * * * * * * * * * * * * //
Create time



Decomposing mesh region0

Create mesh

Calculating distribution of cells
Selecting decompositionMethod simple

Finished decomposition in 6.98 s

Calculating original mesh data

Distributing cells to processors

Distributing faces to processors

Distributing points to processors

Constructing processor meshes

Processor 0
    Number of cells = 94000
    Number of faces shared with processor 1 = 2350
    Number of faces shared with processor 8 = 1880
    Number of faces shared with processor 32 = 2000
    Number of processor patches = 3
    Number of processor faces = 6230
    Number of boundary faces = 6230

Processor 1
    Number of cells = 94000
    Number of faces shared with processor 0 = 2350
    Number of faces shared with processor 2 = 2350
    Number of faces shared with processor 9 = 1880
    Number of faces shared with processor 33 = 2000
    Number of processor patches = 4
    Number of processor faces = 8580
    Number of boundary faces = 3880

Processor 2
    Number of cells = 94000
    Number of faces shared with processor 1 = 2350
    Number of faces shared with processor 3 = 2350
    Number of faces shared with processor 10 = 1880
    Number of faces shared with processor 34 = 2000
    Number of processor patches = 4
    Number of processor faces = 8580
    Number of boundary faces = 3880

Processor 3
    Number of cells = 94000
    Number of faces shared with processor 2 = 2350
    Number of faces shared with processor 4 = 2350
    Number of faces shared with processor 11 = 1880
    Number of faces shared with processor 35 = 2000
    Number of processor patches = 4
    Number of processor faces = 8580
    Number of boundary faces = 3880

Processor 4
    Number of cells = 94000
    Number of faces shared with processor 3 = 2350
    Number of faces shared with processor 5 = 2350
    Number of faces shared with processor 12 = 1880
    Number of faces shared with processor 36 = 2000
    Number of processor patches = 4
    Number of processor faces = 8580
    Number of boundary faces = 3880

Processor 5
    Number of cells = 94000
    Number of faces shared with processor 4 = 2350
    Number of faces shared with processor 6 = 2350
    Number of faces shared with processor 13 = 1880
    Number of faces shared with processor 37 = 2000
    Number of processor patches = 4
    Number of processor faces = 8580
    Number of boundary faces = 3880

Processor 6
    Number of cells = 93864
    Number of faces shared with processor 5 = 2350
    Number of faces shared with processor 7 = 2332
    Number of faces shared with processor 14 = 1863
    Number of faces shared with processor 38 = 2032
    Number of faces shared with processor 39 = 2
    Number of faces shared with processor 46 = 1
    Number of processor patches = 6
    Number of processor faces = 8580
    Number of boundary faces = 3880

Processor 7
    Number of cells = 92528
    Number of faces shared with processor 6 = 2332
    Number of faces shared with processor 15 = 1840
    Number of faces shared with processor 39 = 2064
    Number of processor patches = 3
    Number of processor faces = 6236
    Number of boundary faces = 6172

Processor 8
    Number of cells = 94000
    Number of faces shared with processor 0 = 1880
    Number of faces shared with processor 9 = 2350
    Number of faces shared with processor 16 = 1880
    Number of faces shared with processor 40 = 2000
    Number of processor patches = 4
    Number of processor faces = 8110
    Number of boundary faces = 4350

Processor 9
    Number of cells = 94000
    Number of faces shared with processor 1 = 1880
    Number of faces shared with processor 8 = 2350
    Number of faces shared with processor 10 = 2350
    Number of faces shared with processor 17 = 1880
    Number of faces shared with processor 41 = 2000
    Number of processor patches = 5
    Number of processor faces = 10460
    Number of boundary faces = 2000

Processor 10
    Number of cells = 94000
    Number of faces shared with processor 2 = 1880
    Number of faces shared with processor 9 = 2350
    Number of faces shared with processor 11 = 2350
    Number of faces shared with processor 18 = 1880
    Number of faces shared with processor 42 = 2000
    Number of processor patches = 5
    Number of processor faces = 10460
    Number of boundary faces = 2000

Processor 11
    Number of cells = 94000
    Number of faces shared with processor 3 = 1880
    Number of faces shared with processor 10 = 2350
    Number of faces shared with processor 12 = 2350
    Number of faces shared with processor 19 = 1880
    Number of faces shared with processor 43 = 2000
    Number of processor patches = 5
    Number of processor faces = 10460
    Number of boundary faces = 2000

Processor 12
    Number of cells = 94000
    Number of faces shared with processor 4 = 1880
    Number of faces shared with processor 11 = 2350
    Number of faces shared with processor 13 = 2350
    Number of faces shared with processor 20 = 1880
    Number of faces shared with processor 44 = 2000
    Number of processor patches = 5
    Number of processor faces = 10460
    Number of boundary faces = 2000

Processor 13
    Number of cells = 93649
    Number of faces shared with processor 5 = 1880
    Number of faces shared with processor 12 = 2350
    Number of faces shared with processor 14 = 2323
    Number of faces shared with processor 21 = 1853
    Number of faces shared with processor 45 = 2052
    Number of faces shared with processor 46 = 1
    Number of faces shared with processor 53 = 1
    Number of processor patches = 7
    Number of processor faces = 10460
    Number of boundary faces = 2000

Processor 14
    Number of cells = 92276
    Number of faces shared with processor 6 = 1863
    Number of faces shared with processor 13 = 2323
    Number of faces shared with processor 15 = 2300
    Number of faces shared with processor 22 = 1840
    Number of faces shared with processor 46 = 2046
    Number of processor patches = 5
    Number of processor faces = 10372
    Number of boundary faces = 2000

Processor 15
    Number of cells = 92000
    Number of faces shared with processor 7 = 1840
    Number of faces shared with processor 14 = 2300
    Number of faces shared with processor 23 = 1840
    Number of faces shared with processor 47 = 2000
    Number of processor patches = 4
    Number of processor faces = 7980
    Number of boundary faces = 4300

Processor 16
    Number of cells = 94000
    Number of faces shared with processor 8 = 1880
    Number of faces shared with processor 17 = 2350
    Number of faces shared with processor 24 = 1880
    Number of faces shared with processor 48 = 2000
    Number of processor patches = 4
    Number of processor faces = 8110
    Number of boundary faces = 4350

Processor 17
    Number of cells = 94000
    Number of faces shared with processor 9 = 1880
    Number of faces shared with processor 16 = 2350
    Number of faces shared with processor 18 = 2350
    Number of faces shared with processor 25 = 1880
    Number of faces shared with processor 49 = 2000
    Number of processor patches = 5
    Number of processor faces = 10460
    Number of boundary faces = 2000

Processor 18
    Number of cells = 94000
    Number of faces shared with processor 10 = 1880
    Number of faces shared with processor 17 = 2350
    Number of faces shared with processor 19 = 2350
    Number of faces shared with processor 26 = 1880
    Number of faces shared with processor 50 = 2000
    Number of processor patches = 5
    Number of processor faces = 10460
    Number of boundary faces = 2000

Processor 19
    Number of cells = 94000
    Number of faces shared with processor 11 = 1880
    Number of faces shared with processor 18 = 2350
    Number of faces shared with processor 20 = 2350
    Number of faces shared with processor 27 = 1880
    Number of faces shared with processor 51 = 2000
    Number of processor patches = 5
    Number of processor faces = 10460
    Number of boundary faces = 2000

Processor 20
    Number of cells = 93334
    Number of faces shared with processor 12 = 1880
    Number of faces shared with processor 19 = 2350
    Number of faces shared with processor 21 = 2313
    Number of faces shared with processor 28 = 1843
    Number of faces shared with processor 52 = 2072
    Number of faces shared with processor 53 = 1
    Number of faces shared with processor 60 = 1
    Number of processor patches = 7
    Number of processor faces = 10460
    Number of boundary faces = 2000

Processor 21
    Number of cells = 92091
    Number of faces shared with processor 13 = 1853
    Number of faces shared with processor 20 = 2313
    Number of faces shared with processor 22 = 2300
    Number of faces shared with processor 29 = 1840
    Number of faces shared with processor 53 = 2026
    Number of processor patches = 5
    Number of processor faces = 10332
    Number of boundary faces = 2000

Processor 22
    Number of cells = 92000
    Number of faces shared with processor 14 = 1840
    Number of faces shared with processor 21 = 2300
    Number of faces shared with processor 23 = 2300
    Number of faces shared with processor 30 = 1840
    Number of faces shared with processor 54 = 2000
    Number of processor patches = 5
    Number of processor faces = 10280
    Number of boundary faces = 2000

Processor 23
    Number of cells = 92000
    Number of faces shared with processor 15 = 1840
    Number of faces shared with processor 22 = 2300
    Number of faces shared with processor 31 = 1840
    Number of faces shared with processor 55 = 2000
    Number of processor patches = 4
    Number of processor faces = 7980
    Number of boundary faces = 4300

Processor 24
    Number of cells = 94000
    Number of faces shared with processor 16 = 1880
    Number of faces shared with processor 25 = 2350
    Number of faces shared with processor 56 = 2000
    Number of processor patches = 3
    Number of processor faces = 6230
    Number of boundary faces = 6230

Processor 25
    Number of cells = 94000
    Number of faces shared with processor 17 = 1880
    Number of faces shared with processor 24 = 2350
    Number of faces shared with processor 26 = 2350
    Number of faces shared with processor 57 = 2000
    Number of processor patches = 4
    Number of processor faces = 8580
    Number of boundary faces = 3880

Processor 26
    Number of cells = 93979
    Number of faces shared with processor 18 = 1880
    Number of faces shared with processor 25 = 2350
    Number of faces shared with processor 27 = 2343
    Number of faces shared with processor 58 = 2012
    Number of faces shared with processor 59 = 1
    Number of processor patches = 5
    Number of processor faces = 8586
    Number of boundary faces = 3874

Processor 27
    Number of cells = 92940
    Number of faces shared with processor 19 = 1880
    Number of faces shared with processor 26 = 2343
    Number of faces shared with processor 28 = 2303
    Number of faces shared with processor 59 = 2079
    Number of faces shared with processor 60 = 1
    Number of processor patches = 5
    Number of processor faces = 8606
    Number of boundary faces = 3840

Processor 28
    Number of cells = 92006
    Number of faces shared with processor 20 = 1843
    Number of faces shared with processor 27 = 2303
    Number of faces shared with processor 29 = 2300
    Number of faces shared with processor 60 = 2006
    Number of processor patches = 4
    Number of processor faces = 8452
    Number of boundary faces = 3840

Processor 29
    Number of cells = 92000
    Number of faces shared with processor 21 = 1840
    Number of faces shared with processor 28 = 2300
    Number of faces shared with processor 30 = 2300
    Number of faces shared with processor 61 = 2000
    Number of processor patches = 4
    Number of processor faces = 8440
    Number of boundary faces = 3840

Processor 30
    Number of cells = 92000
    Number of faces shared with processor 22 = 1840
    Number of faces shared with processor 29 = 2300
    Number of faces shared with processor 31 = 2300
    Number of faces shared with processor 62 = 2000
    Number of processor patches = 4
    Number of processor faces = 8440
    Number of boundary faces = 3840

Processor 31
    Number of cells = 92000
    Number of faces shared with processor 23 = 1840
    Number of faces shared with processor 30 = 2300
    Number of faces shared with processor 63 = 2000
    Number of processor patches = 3
    Number of processor faces = 6140
    Number of boundary faces = 6140

Processor 32
    Number of cells = 94000
    Number of faces shared with processor 0 = 2000
    Number of faces shared with processor 33 = 2350
    Number of faces shared with processor 40 = 1880
    Number of faces shared with processor 64 = 2000
    Number of processor patches = 4
    Number of processor faces = 8230
    Number of boundary faces = 4230

Processor 33
    Number of cells = 94000
    Number of faces shared with processor 1 = 2000
    Number of faces shared with processor 32 = 2350
    Number of faces shared with processor 34 = 2350
    Number of faces shared with processor 41 = 1880
    Number of faces shared with processor 65 = 2000
    Number of processor patches = 5
    Number of processor faces = 10580
    Number of boundary faces = 1880

Processor 34
    Number of cells = 94000
    Number of faces shared with processor 2 = 2000
    Number of faces shared with processor 33 = 2350
    Number of faces shared with processor 35 = 2350
    Number of faces shared with processor 42 = 1880
    Number of faces shared with processor 66 = 2000
    Number of processor patches = 5
    Number of processor faces = 10580
    Number of boundary faces = 1880

Processor 35
    Number of cells = 93994
    Number of faces shared with processor 3 = 2000
    Number of faces shared with processor 34 = 2350
    Number of faces shared with processor 36 = 2346
    Number of faces shared with processor 43 = 1876
    Number of faces shared with processor 67 = 2006
    Number of faces shared with processor 68 = 1
    Number of faces shared with processor 75 = 1
    Number of processor patches = 7
    Number of processor faces = 10580
    Number of boundary faces = 1880

Processor 36
    Number of cells = 93060
    Number of faces shared with processor 4 = 2000
    Number of faces shared with processor 35 = 2346
    Number of faces shared with processor 37 = 2306
    Number of faces shared with processor 44 = 1840
    Number of faces shared with processor 68 = 2079
    Number of faces shared with processor 69 = 1
    Number of processor patches = 6
    Number of processor faces = 10572
    Number of boundary faces = 1880

Processor 37
    Number of cells = 92021
    Number of faces shared with processor 5 = 2000
    Number of faces shared with processor 36 = 2306
    Number of faces shared with processor 38 = 2300
    Number of faces shared with processor 45 = 1840
    Number of faces shared with processor 69 = 2012
    Number of processor patches = 5
    Number of processor faces = 10458
    Number of boundary faces = 1846

Processor 38
    Number of cells = 92136
    Number of faces shared with processor 6 = 2032
    Number of faces shared with processor 37 = 2300
    Number of faces shared with processor 39 = 2316
    Number of faces shared with processor 46 = 1856
    Number of faces shared with processor 70 = 2000
    Number of processor patches = 5
    Number of processor faces = 10504
    Number of boundary faces = 1840

Processor 39
    Number of cells = 93472
    Number of faces shared with processor 6 = 2
    Number of faces shared with processor 7 = 2064
    Number of faces shared with processor 38 = 2316
    Number of faces shared with processor 47 = 1880
    Number of faces shared with processor 71 = 2000
    Number of processor patches = 5
    Number of processor faces = 8262
    Number of boundary faces = 4198

Processor 40
    Number of cells = 94000
    Number of faces shared with processor 8 = 2000
    Number of faces shared with processor 32 = 1880
    Number of faces shared with processor 41 = 2350
    Number of faces shared with processor 48 = 1880
    Number of faces shared with processor 72 = 2000
    Number of processor patches = 5
    Number of processor faces = 10110
    Number of boundary faces = 2350

Processor 41
    Number of cells = 94000
    Number of faces shared with processor 9 = 2000
    Number of faces shared with processor 33 = 1880
    Number of faces shared with processor 40 = 2350
    Number of faces shared with processor 42 = 2350
    Number of faces shared with processor 49 = 1880
    Number of faces shared with processor 73 = 2000
    Number of processor patches = 6
    Number of processor faces = 12460
    Number of boundary faces = 0

Processor 42
    Number of cells = 93909
    Number of faces shared with processor 10 = 2000
    Number of faces shared with processor 34 = 1880
    Number of faces shared with processor 41 = 2350
    Number of faces shared with processor 43 = 2336
    Number of faces shared with processor 50 = 1866
    Number of faces shared with processor 74 = 2026
    Number of faces shared with processor 75 = 1
    Number of faces shared with processor 82 = 1
    Number of processor patches = 8
    Number of processor faces = 12460
    Number of boundary faces = 0

Processor 43
    Number of cells = 92666
    Number of faces shared with processor 11 = 2000
    Number of faces shared with processor 35 = 1876
    Number of faces shared with processor 42 = 2336
    Number of faces shared with processor 44 = 2300
    Number of faces shared with processor 51 = 1840
    Number of faces shared with processor 75 = 2072
    Number of processor patches = 6
    Number of processor faces = 12424
    Number of boundary faces = 0

Processor 44
    Number of cells = 92000
    Number of faces shared with processor 12 = 2000
    Number of faces shared with processor 36 = 1840
    Number of faces shared with processor 43 = 2300
    Number of faces shared with processor 45 = 2300
    Number of faces shared with processor 52 = 1840
    Number of faces shared with processor 76 = 2000
    Number of processor patches = 6
    Number of processor faces = 12280
    Number of boundary faces = 0

Processor 45
    Number of cells = 92351
    Number of faces shared with processor 13 = 2052
    Number of faces shared with processor 37 = 1840
    Number of faces shared with processor 44 = 2300
    Number of faces shared with processor 46 = 2326
    Number of faces shared with processor 53 = 1866
    Number of faces shared with processor 77 = 2000
    Number of processor patches = 6
    Number of processor faces = 12384
    Number of boundary faces = 0

Processor 46
    Number of cells = 93724
    Number of faces shared with processor 6 = 1
    Number of faces shared with processor 13 = 1
    Number of faces shared with processor 14 = 2046
    Number of faces shared with processor 38 = 1856
    Number of faces shared with processor 45 = 2326
    Number of faces shared with processor 47 = 2350
    Number of faces shared with processor 54 = 1880
    Number of faces shared with processor 78 = 2000
    Number of processor patches = 8
    Number of processor faces = 12460
    Number of boundary faces = 0

Processor 47
    Number of cells = 94000
    Number of faces shared with processor 15 = 2000
    Number of faces shared with processor 39 = 1880
    Number of faces shared with processor 46 = 2350
    Number of faces shared with processor 55 = 1880
    Number of faces shared with processor 79 = 2000
    Number of processor patches = 5
    Number of processor faces = 10110
    Number of boundary faces = 2350

Processor 48
    Number of cells = 94000
    Number of faces shared with processor 16 = 2000
    Number of faces shared with processor 40 = 1880
    Number of faces shared with processor 49 = 2350
    Number of faces shared with processor 56 = 1880
    Number of faces shared with processor 80 = 2000
    Number of processor patches = 5
    Number of processor faces = 10110
    Number of boundary faces = 2350

Processor 49
    Number of cells = 93724
    Number of faces shared with processor 17 = 2000
    Number of faces shared with processor 41 = 1880
    Number of faces shared with processor 48 = 2350
    Number of faces shared with processor 50 = 2326
    Number of faces shared with processor 57 = 1856
    Number of faces shared with processor 81 = 2046
    Number of faces shared with processor 82 = 1
    Number of faces shared with processor 89 = 1
    Number of processor patches = 8
    Number of processor faces = 12460
    Number of boundary faces = 0

Processor 50
    Number of cells = 92351
    Number of faces shared with processor 18 = 2000
    Number of faces shared with processor 42 = 1866
    Number of faces shared with processor 49 = 2326
    Number of faces shared with processor 51 = 2300
    Number of faces shared with processor 58 = 1840
    Number of faces shared with processor 82 = 2052
    Number of processor patches = 6
    Number of processor faces = 12384
    Number of boundary faces = 0

Processor 51
    Number of cells = 92000
    Number of faces shared with processor 19 = 2000
    Number of faces shared with processor 43 = 1840
    Number of faces shared with processor 50 = 2300
    Number of faces shared with processor 52 = 2300
    Number of faces shared with processor 59 = 1840
    Number of faces shared with processor 83 = 2000
    Number of processor patches = 6
    Number of processor faces = 12280
    Number of boundary faces = 0

Processor 52
    Number of cells = 92666
    Number of faces shared with processor 20 = 2072
    Number of faces shared with processor 44 = 1840
    Number of faces shared with processor 51 = 2300
    Number of faces shared with processor 53 = 2336
    Number of faces shared with processor 60 = 1876
    Number of faces shared with processor 84 = 2000
    Number of processor patches = 6
    Number of processor faces = 12424
    Number of boundary faces = 0

Processor 53
    Number of cells = 93909
    Number of faces shared with processor 13 = 1
    Number of faces shared with processor 20 = 1
    Number of faces shared with processor 21 = 2026
    Number of faces shared with processor 45 = 1866
    Number of faces shared with processor 52 = 2336
    Number of faces shared with processor 54 = 2350
    Number of faces shared with processor 61 = 1880
    Number of faces shared with processor 85 = 2000
    Number of processor patches = 8
    Number of processor faces = 12460
    Number of boundary faces = 0

Processor 54
    Number of cells = 94000
    Number of faces shared with processor 22 = 2000
    Number of faces shared with processor 46 = 1880
    Number of faces shared with processor 53 = 2350
    Number of faces shared with processor 55 = 2350
    Number of faces shared with processor 62 = 1880
    Number of faces shared with processor 86 = 2000
    Number of processor patches = 6
    Number of processor faces = 12460
    Number of boundary faces = 0

Processor 55
    Number of cells = 94000
    Number of faces shared with processor 23 = 2000
    Number of faces shared with processor 47 = 1880
    Number of faces shared with processor 54 = 2350
    Number of faces shared with processor 63 = 1880
    Number of faces shared with processor 87 = 2000
    Number of processor patches = 5
    Number of processor faces = 10110
    Number of boundary faces = 2350

Processor 56
    Number of cells = 93472
    Number of faces shared with processor 24 = 2000
    Number of faces shared with processor 48 = 1880
    Number of faces shared with processor 57 = 2317
    Number of faces shared with processor 88 = 2064
    Number of faces shared with processor 89 = 1
    Number of processor patches = 5
    Number of processor faces = 8262
    Number of boundary faces = 4198

Processor 57
    Number of cells = 92137
    Number of faces shared with processor 25 = 2000
    Number of faces shared with processor 49 = 1856
    Number of faces shared with processor 56 = 2317
    Number of faces shared with processor 58 = 2300
    Number of faces shared with processor 89 = 2033
    Number of processor patches = 5
    Number of processor faces = 10506
    Number of boundary faces = 1840

Processor 58
    Number of cells = 92021
    Number of faces shared with processor 26 = 2012
    Number of faces shared with processor 50 = 1840
    Number of faces shared with processor 57 = 2300
    Number of faces shared with processor 59 = 2306
    Number of faces shared with processor 90 = 2000
    Number of processor patches = 5
    Number of processor faces = 10458
    Number of boundary faces = 1846

Processor 59
    Number of cells = 93060
    Number of faces shared with processor 26 = 1
    Number of faces shared with processor 27 = 2079
    Number of faces shared with processor 51 = 1840
    Number of faces shared with processor 58 = 2306
    Number of faces shared with processor 60 = 2346
    Number of faces shared with processor 91 = 2000
    Number of processor patches = 6
    Number of processor faces = 10572
    Number of boundary faces = 1880

Processor 60
    Number of cells = 93994
    Number of faces shared with processor 20 = 1
    Number of faces shared with processor 27 = 1
    Number of faces shared with processor 28 = 2006
    Number of faces shared with processor 52 = 1876
    Number of faces shared with processor 59 = 2346
    Number of faces shared with processor 61 = 2350
    Number of faces shared with processor 92 = 2000
    Number of processor patches = 7
    Number of processor faces = 10580
    Number of boundary faces = 1880

Processor 61
    Number of cells = 94000
    Number of faces shared with processor 29 = 2000
    Number of faces shared with processor 53 = 1880
    Number of faces shared with processor 60 = 2350
    Number of faces shared with processor 62 = 2350
    Number of faces shared with processor 93 = 2000
    Number of processor patches = 5
    Number of processor faces = 10580
    Number of boundary faces = 1880

Processor 62
    Number of cells = 94000
    Number of faces shared with processor 30 = 2000
    Number of faces shared with processor 54 = 1880
    Number of faces shared with processor 61 = 2350
    Number of faces shared with processor 63 = 2350
    Number of faces shared with processor 94 = 2000
    Number of processor patches = 5
    Number of processor faces = 10580
    Number of boundary faces = 1880

Processor 63
    Number of cells = 94000
    Number of faces shared with processor 31 = 2000
    Number of faces shared with processor 55 = 1880
    Number of faces shared with processor 62 = 2350
    Number of faces shared with processor 95 = 2000
    Number of processor patches = 4
    Number of processor faces = 8230
    Number of boundary faces = 4230

Processor 64
    Number of cells = 92000
    Number of faces shared with processor 32 = 2000
    Number of faces shared with processor 65 = 2300
    Number of faces shared with processor 72 = 1840
    Number of processor patches = 3
    Number of processor faces = 6140
    Number of boundary faces = 6140

Processor 65
    Number of cells = 92000
    Number of faces shared with processor 33 = 2000
    Number of faces shared with processor 64 = 2300
    Number of faces shared with processor 66 = 2300
    Number of faces shared with processor 73 = 1840
    Number of processor patches = 4
    Number of processor faces = 8440
    Number of boundary faces = 3840

Processor 66
    Number of cells = 92000
    Number of faces shared with processor 34 = 2000
    Number of faces shared with processor 65 = 2300
    Number of faces shared with processor 67 = 2300
    Number of faces shared with processor 74 = 1840
    Number of processor patches = 4
    Number of processor faces = 8440
    Number of boundary faces = 3840

Processor 67
    Number of cells = 92006
    Number of faces shared with processor 35 = 2006
    Number of faces shared with processor 66 = 2300
    Number of faces shared with processor 68 = 2303
    Number of faces shared with processor 75 = 1843
    Number of processor patches = 4
    Number of processor faces = 8452
    Number of boundary faces = 3840

Processor 68
    Number of cells = 92940
    Number of faces shared with processor 35 = 1
    Number of faces shared with processor 36 = 2079
    Number of faces shared with processor 67 = 2303
    Number of faces shared with processor 69 = 2343
    Number of faces shared with processor 76 = 1880
    Number of processor patches = 5
    Number of processor faces = 8606
    Number of boundary faces = 3840

Processor 69
    Number of cells = 93979
    Number of faces shared with processor 36 = 1
    Number of faces shared with processor 37 = 2012
    Number of faces shared with processor 68 = 2343
    Number of faces shared with processor 70 = 2350
    Number of faces shared with processor 77 = 1880
    Number of processor patches = 5
    Number of processor faces = 8586
    Number of boundary faces = 3874

Processor 70
    Number of cells = 94000
    Number of faces shared with processor 38 = 2000
    Number of faces shared with processor 69 = 2350
    Number of faces shared with processor 71 = 2350
    Number of faces shared with processor 78 = 1880
    Number of processor patches = 4
    Number of processor faces = 8580
    Number of boundary faces = 3880

Processor 71
    Number of cells = 94000
    Number of faces shared with processor 39 = 2000
    Number of faces shared with processor 70 = 2350
    Number of faces shared with processor 79 = 1880
    Number of processor patches = 3
    Number of processor faces = 6230
    Number of boundary faces = 6230

Processor 72
    Number of cells = 92000
    Number of faces shared with processor 40 = 2000
    Number of faces shared with processor 64 = 1840
    Number of faces shared with processor 73 = 2300
    Number of faces shared with processor 80 = 1840
    Number of processor patches = 4
    Number of processor faces = 7980
    Number of boundary faces = 4300

Processor 73
    Number of cells = 92000
    Number of faces shared with processor 41 = 2000
    Number of faces shared with processor 65 = 1840
    Number of faces shared with processor 72 = 2300
    Number of faces shared with processor 74 = 2300
    Number of faces shared with processor 81 = 1840
    Number of processor patches = 5
    Number of processor faces = 10280
    Number of boundary faces = 2000

Processor 74
    Number of cells = 92091
    Number of faces shared with processor 42 = 2026
    Number of faces shared with processor 66 = 1840
    Number of faces shared with processor 73 = 2300
    Number of faces shared with processor 75 = 2313
    Number of faces shared with processor 82 = 1853
    Number of processor patches = 5
    Number of processor faces = 10332
    Number of boundary faces = 2000

Processor 75
    Number of cells = 93334
    Number of faces shared with processor 35 = 1
    Number of faces shared with processor 42 = 1
    Number of faces shared with processor 43 = 2072
    Number of faces shared with processor 67 = 1843
    Number of faces shared with processor 74 = 2313
    Number of faces shared with processor 76 = 2350
    Number of faces shared with processor 83 = 1880
    Number of processor patches = 7
    Number of processor faces = 10460
    Number of boundary faces = 2000

Processor 76
    Number of cells = 94000
    Number of faces shared with processor 44 = 2000
    Number of faces shared with processor 68 = 1880
    Number of faces shared with processor 75 = 2350
    Number of faces shared with processor 77 = 2350
    Number of faces shared with processor 84 = 1880
    Number of processor patches = 5
    Number of processor faces = 10460
    Number of boundary faces = 2000

Processor 77
    Number of cells = 94000
    Number of faces shared with processor 45 = 2000
    Number of faces shared with processor 69 = 1880
    Number of faces shared with processor 76 = 2350
    Number of faces shared with processor 78 = 2350
    Number of faces shared with processor 85 = 1880
    Number of processor patches = 5
    Number of processor faces = 10460
    Number of boundary faces = 2000

Processor 78
    Number of cells = 94000
    Number of faces shared with processor 46 = 2000
    Number of faces shared with processor 70 = 1880
    Number of faces shared with processor 77 = 2350
    Number of faces shared with processor 79 = 2350
    Number of faces shared with processor 86 = 1880
    Number of processor patches = 5
    Number of processor faces = 10460
    Number of boundary faces = 2000

Processor 79
    Number of cells = 94000
    Number of faces shared with processor 47 = 2000
    Number of faces shared with processor 71 = 1880
    Number of faces shared with processor 78 = 2350
    Number of faces shared with processor 87 = 1880
    Number of processor patches = 4
    Number of processor faces = 8110
    Number of boundary faces = 4350

Processor 80
    Number of cells = 92000
    Number of faces shared with processor 48 = 2000
    Number of faces shared with processor 72 = 1840
    Number of faces shared with processor 81 = 2300
    Number of faces shared with processor 88 = 1840
    Number of processor patches = 4
    Number of processor faces = 7980
    Number of boundary faces = 4300

Processor 81
    Number of cells = 92276
    Number of faces shared with processor 49 = 2046
    Number of faces shared with processor 73 = 1840
    Number of faces shared with processor 80 = 2300
    Number of faces shared with processor 82 = 2323
    Number of faces shared with processor 89 = 1863
    Number of processor patches = 5
    Number of processor faces = 10372
    Number of boundary faces = 2000

Processor 82
    Number of cells = 93649
    Number of faces shared with processor 42 = 1
    Number of faces shared with processor 49 = 1
    Number of faces shared with processor 50 = 2052
    Number of faces shared with processor 74 = 1853
    Number of faces shared with processor 81 = 2323
    Number of faces shared with processor 83 = 2350
    Number of faces shared with processor 90 = 1880
    Number of processor patches = 7
    Number of processor faces = 10460
    Number of boundary faces = 2000

Processor 83
    Number of cells = 94000
    Number of faces shared with processor 51 = 2000
    Number of faces shared with processor 75 = 1880
    Number of faces shared with processor 82 = 2350
    Number of faces shared with processor 84 = 2350
    Number of faces shared with processor 91 = 1880
    Number of processor patches = 5
    Number of processor faces = 10460
    Number of boundary faces = 2000

Processor 84
    Number of cells = 94000
    Number of faces shared with processor 52 = 2000
    Number of faces shared with processor 76 = 1880
    Number of faces shared with processor 83 = 2350
    Number of faces shared with processor 85 = 2350
    Number of faces shared with processor 92 = 1880
    Number of processor patches = 5
    Number of processor faces = 10460
    Number of boundary faces = 2000

Processor 85
    Number of cells = 94000
    Number of faces shared with processor 53 = 2000
    Number of faces shared with processor 77 = 1880
    Number of faces shared with processor 84 = 2350
    Number of faces shared with processor 86 = 2350
    Number of faces shared with processor 93 = 1880
    Number of processor patches = 5
    Number of processor faces = 10460
    Number of boundary faces = 2000

Processor 86
    Number of cells = 94000
    Number of faces shared with processor 54 = 2000
    Number of faces shared with processor 78 = 1880
    Number of faces shared with processor 85 = 2350
    Number of faces shared with processor 87 = 2350
    Number of faces shared with processor 94 = 1880
    Number of processor patches = 5
    Number of processor faces = 10460
    Number of boundary faces = 2000

Processor 87
    Number of cells = 94000
    Number of faces shared with processor 55 = 2000
    Number of faces shared with processor 79 = 1880
    Number of faces shared with processor 86 = 2350
    Number of faces shared with processor 95 = 1880
    Number of processor patches = 4
    Number of processor faces = 8110
    Number of boundary faces = 4350

Processor 88
    Number of cells = 92528
    Number of faces shared with processor 56 = 2064
    Number of faces shared with processor 80 = 1840
    Number of faces shared with processor 89 = 2332
    Number of processor patches = 3
    Number of processor faces = 6236
    Number of boundary faces = 6172

Processor 89
    Number of cells = 93863
    Number of faces shared with processor 49 = 1
    Number of faces shared with processor 56 = 1
    Number of faces shared with processor 57 = 2033
    Number of faces shared with processor 81 = 1863
    Number of faces shared with processor 88 = 2332
    Number of faces shared with processor 90 = 2350
    Number of processor patches = 6
    Number of processor faces = 8580
    Number of boundary faces = 3880

Processor 90
    Number of cells = 94000
    Number of faces shared with processor 58 = 2000
    Number of faces shared with processor 82 = 1880
    Number of faces shared with processor 89 = 2350
    Number of faces shared with processor 91 = 2350
    Number of processor patches = 4
    Number of processor faces = 8580
    Number of boundary faces = 3880

Processor 91
    Number of cells = 94000
    Number of faces shared with processor 59 = 2000
    Number of faces shared with processor 83 = 1880
    Number of faces shared with processor 90 = 2350
    Number of faces shared with processor 92 = 2350
    Number of processor patches = 4
    Number of processor faces = 8580
    Number of boundary faces = 3880

Processor 92
    Number of cells = 94000
    Number of faces shared with processor 60 = 2000
    Number of faces shared with processor 84 = 1880
    Number of faces shared with processor 91 = 2350
    Number of faces shared with processor 93 = 2350
    Number of processor patches = 4
    Number of processor faces = 8580
    Number of boundary faces = 3880

Processor 93
    Number of cells = 94000
    Number of faces shared with processor 61 = 2000
    Number of faces shared with processor 85 = 1880
    Number of faces shared with processor 92 = 2350
    Number of faces shared with processor 94 = 2350
    Number of processor patches = 4
    Number of processor faces = 8580
    Number of boundary faces = 3880

Processor 94
    Number of cells = 94000
    Number of faces shared with processor 62 = 2000
    Number of faces shared with processor 86 = 1880
    Number of faces shared with processor 93 = 2350
    Number of faces shared with processor 95 = 2350
    Number of processor patches = 4
    Number of processor faces = 8580
    Number of boundary faces = 3880

Processor 95
    Number of cells = 94000
    Number of faces shared with processor 63 = 2000
    Number of faces shared with processor 87 = 1880
    Number of faces shared with processor 94 = 2350
    Number of processor patches = 3
    Number of processor faces = 6230
    Number of boundary faces = 6230

Number of processor faces = 459179
Max number of cells = 94000 (0.714286% above average 93333.3)
Max number of processor patches = 8 (62.7119% above average 4.91667)
Max number of faces between processors = 12460 (30.2499% above average 9566.23)

Time = 0

Processor 0: field transfer
Processor 1: field transfer
Processor 2: field transfer
Processor 3: field transfer
Processor 4: field transfer
Processor 5: field transfer
Processor 6: field transfer
Processor 7: field transfer
Processor 8: field transfer
Processor 9: field transfer
Processor 10: field transfer
Processor 11: field transfer
Processor 12: field transfer
Processor 13: field transfer
Processor 14: field transfer
Processor 15: field transfer
Processor 16: field transfer
Processor 17: field transfer
Processor 18: field transfer
Processor 19: field transfer
Processor 20: field transfer
Processor 21: field transfer
Processor 22: field transfer
Processor 23: field transfer
Processor 24: field transfer
Processor 25: field transfer
Processor 26: field transfer
Processor 27: field transfer
Processor 28: field transfer
Processor 29: field transfer
Processor 30: field transfer
Processor 31: field transfer
Processor 32: field transfer
Processor 33: field transfer
Processor 34: field transfer
Processor 35: field transfer
Processor 36: field transfer
Processor 37: field transfer
Processor 38: field transfer
Processor 39: field transfer
Processor 40: field transfer
Processor 41: field transfer
Processor 42: field transfer
Processor 43: field transfer
Processor 44: field transfer
Processor 45: field transfer
Processor 46: field transfer
Processor 47: field transfer
Processor 48: field transfer
Processor 49: field transfer
Processor 50: field transfer
Processor 51: field transfer
Processor 52: field transfer
Processor 53: field transfer
Processor 54: field transfer
Processor 55: field transfer
Processor 56: field transfer
Processor 57: field transfer
Processor 58: field transfer
Processor 59: field transfer
Processor 60: field transfer
Processor 61: field transfer
Processor 62: field transfer
Processor 63: field transfer
Processor 64: field transfer
Processor 65: field transfer
Processor 66: field transfer
Processor 67: field transfer
Processor 68: field transfer
Processor 69: field transfer
Processor 70: field transfer
Processor 71: field transfer
Processor 72: field transfer
Processor 73: field transfer
Processor 74: field transfer
Processor 75: field transfer
Processor 76: field transfer
Processor 77: field transfer
Processor 78: field transfer
Processor 79: field transfer
Processor 80: field transfer
Processor 81: field transfer
Processor 82: field transfer
Processor 83: field transfer
Processor 84: field transfer
Processor 85: field transfer
Processor 86: field transfer
Processor 87: field transfer
Processor 88: field transfer
Processor 89: field transfer
Processor 90: field transfer
Processor 91: field transfer
Processor 92: field transfer
Processor 93: field transfer
Processor 94: field transfer
Processor 95: field transfer

End

/*---------------------------------------------------------------------------*\
  =========                 |
  \\      /  F ield         | OpenFOAM: The Open Source CFD Toolbox
   \\    /   O peration     | Website:  https://openfoam.org
    \\  /    A nd           | Version:  8
     \\/     M anipulation  |
\*---------------------------------------------------------------------------*/
Build  : 8
Exec   : simpleDarcyFoam -parallel
Date   : Nov 03 2022
Time   : 13:31:33
Host   : "compute030.int.augusta.nottingham.ac.uk"
PID    : 112250
I/O    : uncollated
Case   : /gpfs01/home/pmxep5/PGSFlowTransport/tutorials/RESULTS/Herten/varMecDisp1e-2alpha
nProcs : 96
Slaves : 
95
(
"compute030.int.augusta.nottingham.ac.uk.112251"
"compute030.int.augusta.nottingham.ac.uk.112252"
"compute030.int.augusta.nottingham.ac.uk.112253"
"compute030.int.augusta.nottingham.ac.uk.112254"
"compute030.int.augusta.nottingham.ac.uk.112255"
"compute030.int.augusta.nottingham.ac.uk.112256"
"compute030.int.augusta.nottingham.ac.uk.112257"
"compute030.int.augusta.nottingham.ac.uk.112258"
"compute030.int.augusta.nottingham.ac.uk.112259"
"compute030.int.augusta.nottingham.ac.uk.112260"
"compute030.int.augusta.nottingham.ac.uk.112261"
"compute034.int.augusta.nottingham.ac.uk.148479"
"compute034.int.augusta.nottingham.ac.uk.148480"
"compute034.int.augusta.nottingham.ac.uk.148481"
"compute034.int.augusta.nottingham.ac.uk.148482"
"compute034.int.augusta.nottingham.ac.uk.148510"
"compute034.int.augusta.nottingham.ac.uk.148525"
"compute034.int.augusta.nottingham.ac.uk.148526"
"compute034.int.augusta.nottingham.ac.uk.148527"
"compute034.int.augusta.nottingham.ac.uk.148528"
"compute034.int.augusta.nottingham.ac.uk.148529"
"compute034.int.augusta.nottingham.ac.uk.148530"
"compute034.int.augusta.nottingham.ac.uk.148531"
"compute041.int.augusta.nottingham.ac.uk.247294"
"compute041.int.augusta.nottingham.ac.uk.247295"
"compute041.int.augusta.nottingham.ac.uk.247296"
"compute041.int.augusta.nottingham.ac.uk.247298"
"compute041.int.augusta.nottingham.ac.uk.247339"
"compute041.int.augusta.nottingham.ac.uk.247340"
"compute041.int.augusta.nottingham.ac.uk.247341"
"compute041.int.augusta.nottingham.ac.uk.247342"
"compute041.int.augusta.nottingham.ac.uk.247343"
"compute041.int.augusta.nottingham.ac.uk.247344"
"compute041.int.augusta.nottingham.ac.uk.247345"
"compute041.int.augusta.nottingham.ac.uk.247346"
"compute047.int.augusta.nottingham.ac.uk.224467"
"compute047.int.augusta.nottingham.ac.uk.224468"
"compute047.int.augusta.nottingham.ac.uk.224469"
"compute047.int.augusta.nottingham.ac.uk.224470"
"compute047.int.augusta.nottingham.ac.uk.224471"
"compute047.int.augusta.nottingham.ac.uk.224472"
"compute047.int.augusta.nottingham.ac.uk.224473"
"compute047.int.augusta.nottingham.ac.uk.224474"
"compute047.int.augusta.nottingham.ac.uk.224475"
"compute047.int.augusta.nottingham.ac.uk.224476"
"compute047.int.augusta.nottingham.ac.uk.224477"
"compute047.int.augusta.nottingham.ac.uk.224478"
"compute053.int.augusta.nottingham.ac.uk.204524"
"compute053.int.augusta.nottingham.ac.uk.204525"
"compute053.int.augusta.nottingham.ac.uk.204526"
"compute053.int.augusta.nottingham.ac.uk.204527"
"compute053.int.augusta.nottingham.ac.uk.204528"
"compute053.int.augusta.nottingham.ac.uk.204529"
"compute053.int.augusta.nottingham.ac.uk.204530"
"compute053.int.augusta.nottingham.ac.uk.204531"
"compute053.int.augusta.nottingham.ac.uk.204532"
"compute053.int.augusta.nottingham.ac.uk.204533"
"compute053.int.augusta.nottingham.ac.uk.204534"
"compute053.int.augusta.nottingham.ac.uk.204535"
"compute055.int.augusta.nottingham.ac.uk.198265"
"compute055.int.augusta.nottingham.ac.uk.198266"
"compute055.int.augusta.nottingham.ac.uk.198267"
"compute055.int.augusta.nottingham.ac.uk.198268"
"compute055.int.augusta.nottingham.ac.uk.198269"
"compute055.int.augusta.nottingham.ac.uk.198312"
"compute055.int.augusta.nottingham.ac.uk.198313"
"compute055.int.augusta.nottingham.ac.uk.198314"
"compute055.int.augusta.nottingham.ac.uk.198315"
"compute055.int.augusta.nottingham.ac.uk.198316"
"compute055.int.augusta.nottingham.ac.uk.198317"
"compute055.int.augusta.nottingham.ac.uk.198318"
"compute067.int.augusta.nottingham.ac.uk.240782"
"compute067.int.augusta.nottingham.ac.uk.240824"
"compute067.int.augusta.nottingham.ac.uk.240825"
"compute067.int.augusta.nottingham.ac.uk.240826"
"compute067.int.augusta.nottingham.ac.uk.240827"
"compute067.int.augusta.nottingham.ac.uk.240828"
"compute067.int.augusta.nottingham.ac.uk.240829"
"compute067.int.augusta.nottingham.ac.uk.240830"
"compute067.int.augusta.nottingham.ac.uk.240831"
"compute067.int.augusta.nottingham.ac.uk.240832"
"compute067.int.augusta.nottingham.ac.uk.240833"
"compute067.int.augusta.nottingham.ac.uk.240834"
"compute068.int.augusta.nottingham.ac.uk.149120"
"compute068.int.augusta.nottingham.ac.uk.149121"
"compute068.int.augusta.nottingham.ac.uk.149122"
"compute068.int.augusta.nottingham.ac.uk.149123"
"compute068.int.augusta.nottingham.ac.uk.149124"
"compute068.int.augusta.nottingham.ac.uk.149125"
"compute068.int.augusta.nottingham.ac.uk.149126"
"compute068.int.augusta.nottingham.ac.uk.149127"
"compute068.int.augusta.nottingham.ac.uk.149128"
"compute068.int.augusta.nottingham.ac.uk.149129"
"compute068.int.augusta.nottingham.ac.uk.149130"
"compute068.int.augusta.nottingham.ac.uk.149131"
)

Pstream initialized with:
    floatTransfer      : 0
    nProcsSimpleSum    : 0
    commsType          : nonBlocking
    polling iterations : 0
sigFpe : Enabling floating point exception trapping (FOAM_SIGFPE).
fileModificationChecking : Monitoring run-time modified files using timeStampMaster (fileModificationSkew 10)
allowSystemOperations : Allowing user-supplied system call operations

// * * * * * * * * * * * * * * * * * * * * * * * * * * * * * * * * * * * * * //
Create time

Create mesh for time = 0


SIMPLE: Convergence criteria found
        p: tolerance 1e-10
        c: tolerance 1e-10


Reading g

Reading field p

Reading transportProperties

Reading field K

Reading/calculating face flux field phi

No finite volume options present

Starting time loop

Time = 100

DICPBiCGStab:  Solving for p, Initial residual = 1, Final residual = 9.6644e-07, No Iterations 501
Mean velocity  = (0.000273321 1.48838e-07 1.13263e-06)

ExecutionTime = 6.22 s  ClockTime = 6 s

Time = 200

DICPBiCGStab:  Solving for p, Initial residual = 5.12367e-07, Final residual = 4.40975e-13, No Iterations 403
Mean velocity  = (0.000273324 1.5024e-07 1.13147e-06)

ExecutionTime = 9.55 s  ClockTime = 9 s

Time = 300

DICPBiCGStab:  Solving for p, Initial residual = 5.0836e-13, Final residual = 4.52373e-16, No Iterations 247
Mean velocity  = (0.000273324 1.5024e-07 1.13147e-06)

ExecutionTime = 11.82 s  ClockTime = 12 s


SIMPLE solution converged in 300 iterations

End

Finalising parallel run
/*---------------------------------------------------------------------------*\
  =========                 |
  \\      /  F ield         | OpenFOAM: The Open Source CFD Toolbox
   \\    /   O peration     | Website:  https://openfoam.org
    \\  /    A nd           | Version:  8
     \\/     M anipulation  |
\*---------------------------------------------------------------------------*/
Build  : 8
Exec   : macroScalarTransport -parallel
Date   : Nov 03 2022
Time   : 13:33:41
Host   : "compute030.int.augusta.nottingham.ac.uk"
PID    : 137428
I/O    : uncollated
Case   : /gpfs01/home/pmxep5/PGSFlowTransport/tutorials/RESULTS/Herten/varMecDisp1e-2alpha
nProcs : 96
Slaves : 
95
(
"compute030.int.augusta.nottingham.ac.uk.137429"
"compute030.int.augusta.nottingham.ac.uk.137430"
"compute030.int.augusta.nottingham.ac.uk.137431"
"compute030.int.augusta.nottingham.ac.uk.137432"
"compute030.int.augusta.nottingham.ac.uk.137433"
"compute030.int.augusta.nottingham.ac.uk.137434"
"compute030.int.augusta.nottingham.ac.uk.137435"
"compute030.int.augusta.nottingham.ac.uk.137436"
"compute030.int.augusta.nottingham.ac.uk.137437"
"compute030.int.augusta.nottingham.ac.uk.137438"
"compute030.int.augusta.nottingham.ac.uk.137439"
"compute034.int.augusta.nottingham.ac.uk.174223"
"compute034.int.augusta.nottingham.ac.uk.174265"
"compute034.int.augusta.nottingham.ac.uk.174266"
"compute034.int.augusta.nottingham.ac.uk.174267"
"compute034.int.augusta.nottingham.ac.uk.174268"
"compute034.int.augusta.nottingham.ac.uk.174269"
"compute034.int.augusta.nottingham.ac.uk.174270"
"compute034.int.augusta.nottingham.ac.uk.174271"
"compute034.int.augusta.nottingham.ac.uk.174272"
"compute034.int.augusta.nottingham.ac.uk.174273"
"compute034.int.augusta.nottingham.ac.uk.174274"
"compute034.int.augusta.nottingham.ac.uk.174275"
"compute041.int.augusta.nottingham.ac.uk.266441"
"compute041.int.augusta.nottingham.ac.uk.266483"
"compute041.int.augusta.nottingham.ac.uk.266484"
"compute041.int.augusta.nottingham.ac.uk.266485"
"compute041.int.augusta.nottingham.ac.uk.266486"
"compute041.int.augusta.nottingham.ac.uk.266487"
"compute041.int.augusta.nottingham.ac.uk.266488"
"compute041.int.augusta.nottingham.ac.uk.266489"
"compute041.int.augusta.nottingham.ac.uk.266490"
"compute041.int.augusta.nottingham.ac.uk.266491"
"compute041.int.augusta.nottingham.ac.uk.266492"
"compute041.int.augusta.nottingham.ac.uk.266493"
"compute047.int.augusta.nottingham.ac.uk.224620"
"compute047.int.augusta.nottingham.ac.uk.224621"
"compute047.int.augusta.nottingham.ac.uk.224622"
"compute047.int.augusta.nottingham.ac.uk.224623"
"compute047.int.augusta.nottingham.ac.uk.224624"
"compute047.int.augusta.nottingham.ac.uk.224625"
"compute047.int.augusta.nottingham.ac.uk.224626"
"compute047.int.augusta.nottingham.ac.uk.224627"
"compute047.int.augusta.nottingham.ac.uk.224628"
"compute047.int.augusta.nottingham.ac.uk.224629"
"compute047.int.augusta.nottingham.ac.uk.224630"
"compute047.int.augusta.nottingham.ac.uk.224631"
"compute053.int.augusta.nottingham.ac.uk.228766"
"compute053.int.augusta.nottingham.ac.uk.228767"
"compute053.int.augusta.nottingham.ac.uk.228768"
"compute053.int.augusta.nottingham.ac.uk.228769"
"compute053.int.augusta.nottingham.ac.uk.228770"
"compute053.int.augusta.nottingham.ac.uk.228771"
"compute053.int.augusta.nottingham.ac.uk.228772"
"compute053.int.augusta.nottingham.ac.uk.228773"
"compute053.int.augusta.nottingham.ac.uk.228774"
"compute053.int.augusta.nottingham.ac.uk.228775"
"compute053.int.augusta.nottingham.ac.uk.228776"
"compute053.int.augusta.nottingham.ac.uk.228777"
"compute055.int.augusta.nottingham.ac.uk.221664"
"compute055.int.augusta.nottingham.ac.uk.221707"
"compute055.int.augusta.nottingham.ac.uk.221708"
"compute055.int.augusta.nottingham.ac.uk.221709"
"compute055.int.augusta.nottingham.ac.uk.221710"
"compute055.int.augusta.nottingham.ac.uk.221711"
"compute055.int.augusta.nottingham.ac.uk.221712"
"compute055.int.augusta.nottingham.ac.uk.221713"
"compute055.int.augusta.nottingham.ac.uk.221755"
"compute055.int.augusta.nottingham.ac.uk.221756"
"compute055.int.augusta.nottingham.ac.uk.221757"
"compute055.int.augusta.nottingham.ac.uk.221758"
"compute067.int.augusta.nottingham.ac.uk.261936"
"compute067.int.augusta.nottingham.ac.uk.261937"
"compute067.int.augusta.nottingham.ac.uk.261938"
"compute067.int.augusta.nottingham.ac.uk.261939"
"compute067.int.augusta.nottingham.ac.uk.261940"
"compute067.int.augusta.nottingham.ac.uk.261941"
"compute067.int.augusta.nottingham.ac.uk.261942"
"compute067.int.augusta.nottingham.ac.uk.261943"
"compute067.int.augusta.nottingham.ac.uk.261944"
"compute067.int.augusta.nottingham.ac.uk.261945"
"compute067.int.augusta.nottingham.ac.uk.261946"
"compute067.int.augusta.nottingham.ac.uk.261947"
"compute068.int.augusta.nottingham.ac.uk.172121"
"compute068.int.augusta.nottingham.ac.uk.172122"
"compute068.int.augusta.nottingham.ac.uk.172123"
"compute068.int.augusta.nottingham.ac.uk.172124"
"compute068.int.augusta.nottingham.ac.uk.172125"
"compute068.int.augusta.nottingham.ac.uk.172126"
"compute068.int.augusta.nottingham.ac.uk.172127"
"compute068.int.augusta.nottingham.ac.uk.172128"
"compute068.int.augusta.nottingham.ac.uk.172129"
"compute068.int.augusta.nottingham.ac.uk.172130"
"compute068.int.augusta.nottingham.ac.uk.172131"
"compute068.int.augusta.nottingham.ac.uk.172132"
)

Pstream initialized with:
    floatTransfer      : 0
    nProcsSimpleSum    : 0
    commsType          : nonBlocking
    polling iterations : 0
sigFpe : Enabling floating point exception trapping (FOAM_SIGFPE).
fileModificationChecking : Monitoring run-time modified files using timeStampMaster (fileModificationSkew 10)
allowSystemOperations : Allowing user-supplied system call operations

// * * * * * * * * * * * * * * * * * * * * * * * * * * * * * * * * * * * * * //
Create time

Create mesh for time = 0


SIMPLE: Convergence criteria found
        p: tolerance 1e-10
        c: tolerance 1e-10

Reading field c

Reading field U

Reading transportProperties

Reading diffusivity Dm

Reading outlet name

Reading porosity phi

Reading mechanical disp coeff alpha

Reading controlDict

Reading/calculating face flux field q

No finite volume options present

Calculating scalar transport

Courant Number mean: 0.583838 max: 8.06066
Mean vel = (0.000273324 1.5024e-07 1.13147e-06)

Adaptive time = 9.92457
DILUPBiCGStab:  Solving for c, Initial residual = 1, Final residual = 3.48709e-11, No Iterations 3
Total mass = 0.68996
Flux out = 0

Adaptive time = 19.8491
DILUPBiCGStab:  Solving for c, Initial residual = 0.200331, Final residual = 2.02467e-11, No Iterations 3
Total mass = 1.36988
Flux out = 4.18793e-187

Adaptive time = 29.7737
DILUPBiCGStab:  Solving for c, Initial residual = 0.110281, Final residual = 1.22068e-11, No Iterations 3
Total mass = 2.0391
Flux out = 4.37881e-185

Adaptive time = 39.6983
DILUPBiCGStab:  Solving for c, Initial residual = 0.0758627, Final residual = 1.01077e-11, No Iterations 3
Total mass = 2.69957
Flux out = 2.04435e-183

Adaptive time = 49.6229
DILUPBiCGStab:  Solving for c, Initial residual = 0.0578222, Final residual = 7.09918e-12, No Iterations 3
Total mass = 3.35345
Flux out = 6.20378e-182

Adaptive time = 59.5474
DILUPBiCGStab:  Solving for c, Initial residual = 0.0467585, Final residual = 4.06696e-12, No Iterations 3
Total mass = 4.00253
Flux out = 1.40539e-180

Adaptive time = 69.472
DILUPBiCGStab:  Solving for c, Initial residual = 0.039294, Final residual = 2.70266e-12, No Iterations 3
Total mass = 4.64814
Flux out = 2.55377e-179

Adaptive time = 79.3966
DILUPBiCGStab:  Solving for c, Initial residual = 0.0339192, Final residual = 1.97128e-12, No Iterations 3
Total mass = 5.2912
Flux out = 3.88948e-178

Adaptive time = 89.3212
DILUPBiCGStab:  Solving for c, Initial residual = 0.0298612, Final residual = 1.50419e-12, No Iterations 3
Total mass = 5.93237
Flux out = 5.11504e-177

Adaptive time = 99.2457
DILUPBiCGStab:  Solving for c, Initial residual = 0.026688, Final residual = 8.06302e-11, No Iterations 2
Total mass = 6.57213
Flux out = 5.93008e-176

Adaptive time = 109.17
DILUPBiCGStab:  Solving for c, Initial residual = 0.0241364, Final residual = 7.63533e-11, No Iterations 2
Total mass = 7.21079
Flux out = 6.16739e-175

Adaptive time = 119.095
DILUPBiCGStab:  Solving for c, Initial residual = 0.022039, Final residual = 7.70903e-11, No Iterations 2
Total mass = 7.8486
Flux out = 5.82885e-174

Adaptive time = 129.019
DILUPBiCGStab:  Solving for c, Initial residual = 0.0202834, Final residual = 7.65493e-11, No Iterations 2
Total mass = 8.48572
Flux out = 5.05937e-173

Adaptive time = 138.944
DILUPBiCGStab:  Solving for c, Initial residual = 0.0187919, Final residual = 7.47701e-11, No Iterations 2
Total mass = 9.12231
Flux out = 4.06917e-172

Adaptive time = 148.869
DILUPBiCGStab:  Solving for c, Initial residual = 0.0175088, Final residual = 7.18173e-11, No Iterations 2
Total mass = 9.75845
Flux out = 3.05591e-171

Adaptive time = 158.793
DILUPBiCGStab:  Solving for c, Initial residual = 0.0163927, Final residual = 6.79783e-11, No Iterations 2
Total mass = 10.3942
Flux out = 2.15744e-170

Adaptive time = 168.718
DILUPBiCGStab:  Solving for c, Initial residual = 0.0154129, Final residual = 6.37066e-11, No Iterations 2
Total mass = 11.0297
Flux out = 1.44065e-169

Adaptive time = 178.642
DILUPBiCGStab:  Solving for c, Initial residual = 0.0145459, Final residual = 5.93977e-11, No Iterations 2
Total mass = 11.6649
Flux out = 9.15079e-169

Adaptive time = 188.567
DILUPBiCGStab:  Solving for c, Initial residual = 0.013773, Final residual = 5.49416e-11, No Iterations 2
Total mass = 12.2999
Flux out = 5.55863e-168

Adaptive time = 198.491
DILUPBiCGStab:  Solving for c, Initial residual = 0.0130794, Final residual = 5.05083e-11, No Iterations 2
Total mass = 12.9347
Flux out = 3.24581e-167

Adaptive time = 208.416
DILUPBiCGStab:  Solving for c, Initial residual = 0.0124538, Final residual = 4.62338e-11, No Iterations 2
Total mass = 13.5693
Flux out = 1.83107e-166

Adaptive time = 218.341
DILUPBiCGStab:  Solving for c, Initial residual = 0.0118864, Final residual = 4.21382e-11, No Iterations 2
Total mass = 14.2038
Flux out = 1.00284e-165

Adaptive time = 228.265
DILUPBiCGStab:  Solving for c, Initial residual = 0.0113696, Final residual = 3.82804e-11, No Iterations 2
Total mass = 14.8382
Flux out = 5.35725e-165

Adaptive time = 238.19
DILUPBiCGStab:  Solving for c, Initial residual = 0.0108966, Final residual = 3.46869e-11, No Iterations 2
Total mass = 15.4725
Flux out = 2.80385e-164

Adaptive time = 248.114
DILUPBiCGStab:  Solving for c, Initial residual = 0.0104621, Final residual = 3.13712e-11, No Iterations 2
Total mass = 16.1067
Flux out = 1.4434e-163

Adaptive time = 258.039
DILUPBiCGStab:  Solving for c, Initial residual = 0.0100618, Final residual = 2.84049e-11, No Iterations 2
Total mass = 16.7408
Flux out = 7.33324e-163

Adaptive time = 267.963
DILUPBiCGStab:  Solving for c, Initial residual = 0.0096916, Final residual = 2.57366e-11, No Iterations 2
Total mass = 17.3748
Flux out = 3.6865e-162

Adaptive time = 277.888
DILUPBiCGStab:  Solving for c, Initial residual = 0.00934821, Final residual = 2.33558e-11, No Iterations 2
Total mass = 18.0088
Flux out = 1.83708e-161

Adaptive time = 287.813
DILUPBiCGStab:  Solving for c, Initial residual = 0.0090289, Final residual = 2.12427e-11, No Iterations 2
Total mass = 18.6427
Flux out = 9.08421e-161

Adaptive time = 297.737
DILUPBiCGStab:  Solving for c, Initial residual = 0.00873112, Final residual = 1.95996e-11, No Iterations 2
Total mass = 19.2765
Flux out = 4.45938e-160

Adaptive time = 307.662
DILUPBiCGStab:  Solving for c, Initial residual = 0.00845287, Final residual = 1.85885e-11, No Iterations 2
Total mass = 19.9103
Flux out = 2.17309e-159

Adaptive time = 317.586
DILUPBiCGStab:  Solving for c, Initial residual = 0.00819226, Final residual = 1.80863e-11, No Iterations 2
Total mass = 20.544
Flux out = 1.05097e-158

Adaptive time = 327.511
DILUPBiCGStab:  Solving for c, Initial residual = 0.00794758, Final residual = 1.79653e-11, No Iterations 2
Total mass = 21.1777
Flux out = 5.04288e-158

Adaptive time = 337.435
DILUPBiCGStab:  Solving for c, Initial residual = 0.0077175, Final residual = 1.81097e-11, No Iterations 2
Total mass = 21.8114
Flux out = 2.40022e-157

Adaptive time = 347.36
DILUPBiCGStab:  Solving for c, Initial residual = 0.00750068, Final residual = 1.84582e-11, No Iterations 2
Total mass = 22.4451
Flux out = 1.13313e-156

Adaptive time = 357.285
DILUPBiCGStab:  Solving for c, Initial residual = 0.00729599, Final residual = 1.89881e-11, No Iterations 2
Total mass = 23.0787
Flux out = 5.30654e-156

Adaptive time = 367.209
DILUPBiCGStab:  Solving for c, Initial residual = 0.00710255, Final residual = 1.96757e-11, No Iterations 2
Total mass = 23.7122
Flux out = 2.46585e-155

Adaptive time = 377.134
DILUPBiCGStab:  Solving for c, Initial residual = 0.00691936, Final residual = 2.0515e-11, No Iterations 2
Total mass = 24.3458
Flux out = 1.1374e-154

Adaptive time = 387.058
DILUPBiCGStab:  Solving for c, Initial residual = 0.00674563, Final residual = 2.14965e-11, No Iterations 2
Total mass = 24.9793
Flux out = 5.21015e-154

Adaptive time = 396.983
DILUPBiCGStab:  Solving for c, Initial residual = 0.00658072, Final residual = 2.25976e-11, No Iterations 2
Total mass = 25.6128
Flux out = 2.37127e-153

Adaptive time = 406.908
DILUPBiCGStab:  Solving for c, Initial residual = 0.0064239, Final residual = 2.38043e-11, No Iterations 2
Total mass = 26.2463
Flux out = 1.07274e-152

Adaptive time = 416.832
DILUPBiCGStab:  Solving for c, Initial residual = 0.00627458, Final residual = 2.51066e-11, No Iterations 2
Total mass = 26.8798
Flux out = 4.82562e-152

Adaptive time = 426.757
DILUPBiCGStab:  Solving for c, Initial residual = 0.00613232, Final residual = 2.64937e-11, No Iterations 2
Total mass = 27.5132
Flux out = 2.15916e-151

Adaptive time = 436.681
DILUPBiCGStab:  Solving for c, Initial residual = 0.00599655, Final residual = 2.79716e-11, No Iterations 2
Total mass = 28.1466
Flux out = 9.61122e-151

Adaptive time = 446.606
DILUPBiCGStab:  Solving for c, Initial residual = 0.00586683, Final residual = 2.95556e-11, No Iterations 2
Total mass = 28.78
Flux out = 4.2569e-150

Adaptive time = 456.53
DILUPBiCGStab:  Solving for c, Initial residual = 0.00574283, Final residual = 3.12569e-11, No Iterations 2
Total mass = 29.4134
Flux out = 1.87612e-149

Adaptive time = 466.455
DILUPBiCGStab:  Solving for c, Initial residual = 0.00562411, Final residual = 3.30831e-11, No Iterations 2
Total mass = 30.0468
Flux out = 8.22799e-149

Adaptive time = 476.38
DILUPBiCGStab:  Solving for c, Initial residual = 0.00551035, Final residual = 3.4995e-11, No Iterations 2
Total mass = 30.6802
Flux out = 3.5909e-148

Adaptive time = 486.304
DILUPBiCGStab:  Solving for c, Initial residual = 0.00540131, Final residual = 3.69054e-11, No Iterations 2
Total mass = 31.3135
Flux out = 1.55954e-147

Adaptive time = 496.229
DILUPBiCGStab:  Solving for c, Initial residual = 0.00529664, Final residual = 3.86671e-11, No Iterations 2
Total mass = 31.9469
Flux out = 6.74038e-147

Adaptive time = 506.153
DILUPBiCGStab:  Solving for c, Initial residual = 0.00519607, Final residual = 4.01133e-11, No Iterations 2
Total mass = 32.5802
Flux out = 2.89929e-146

Adaptive time = 516.078
DILUPBiCGStab:  Solving for c, Initial residual = 0.00509944, Final residual = 4.11973e-11, No Iterations 2
Total mass = 33.2135
Flux out = 1.24122e-145

Adaptive time = 526.002
DILUPBiCGStab:  Solving for c, Initial residual = 0.00500645, Final residual = 4.22046e-11, No Iterations 2
Total mass = 33.8468
Flux out = 5.28927e-145

Adaptive time = 535.927
DILUPBiCGStab:  Solving for c, Initial residual = 0.00491691, Final residual = 4.38432e-11, No Iterations 2
Total mass = 34.4801
Flux out = 2.24377e-144

Adaptive time = 545.852
DILUPBiCGStab:  Solving for c, Initial residual = 0.00483067, Final residual = 4.69926e-11, No Iterations 2
Total mass = 35.1134
Flux out = 9.47644e-144

Adaptive time = 555.776
DILUPBiCGStab:  Solving for c, Initial residual = 0.00474751, Final residual = 5.35007e-11, No Iterations 2
Total mass = 35.7467
Flux out = 3.98517e-143

Adaptive time = 565.701
DILUPBiCGStab:  Solving for c, Initial residual = 0.00466726, Final residual = 6.27322e-11, No Iterations 2
Total mass = 36.3799
Flux out = 1.6689e-142

Adaptive time = 575.625
DILUPBiCGStab:  Solving for c, Initial residual = 0.00458984, Final residual = 7.33952e-11, No Iterations 2
Total mass = 37.0132
Flux out = 6.96046e-142

Adaptive time = 585.55
DILUPBiCGStab:  Solving for c, Initial residual = 0.00451503, Final residual = 8.57616e-11, No Iterations 2
Total mass = 37.6465
Flux out = 2.89138e-141

Adaptive time = 595.474
DILUPBiCGStab:  Solving for c, Initial residual = 0.0044427, Final residual = 1.31266e-11, No Iterations 3
Total mass = 38.2797
Flux out = 1.19639e-140

Adaptive time = 605.399
DILUPBiCGStab:  Solving for c, Initial residual = 0.0043728, Final residual = 1.73815e-11, No Iterations 3
Total mass = 38.9129
Flux out = 4.93123e-140

Adaptive time = 615.324
DILUPBiCGStab:  Solving for c, Initial residual = 0.00430516, Final residual = 2.3991e-11, No Iterations 3
Total mass = 39.5462
Flux out = 2.02477e-139

Adaptive time = 625.248
DILUPBiCGStab:  Solving for c, Initial residual = 0.00423965, Final residual = 3.48957e-11, No Iterations 3
Total mass = 40.1794
Flux out = 8.28231e-139

Adaptive time = 635.173
DILUPBiCGStab:  Solving for c, Initial residual = 0.00417622, Final residual = 5.59485e-11, No Iterations 3
Total mass = 40.8126
Flux out = 3.37518e-138

Adaptive time = 645.097
DILUPBiCGStab:  Solving for c, Initial residual = 0.00411475, Final residual = 1.16912e-11, No Iterations 3
Total mass = 41.4458
Flux out = 1.37033e-137

Adaptive time = 655.022
DILUPBiCGStab:  Solving for c, Initial residual = 0.00405513, Final residual = 8.76544e-15, No Iterations 4
Total mass = 42.079
Flux out = 5.54306e-137

Adaptive time = 664.946
DILUPBiCGStab:  Solving for c, Initial residual = 0.00399733, Final residual = 1.1607e-11, No Iterations 3
Total mass = 42.7122
Flux out = 2.23402e-136

Adaptive time = 674.871
DILUPBiCGStab:  Solving for c, Initial residual = 0.00394123, Final residual = 7.81989e-11, No Iterations 3
Total mass = 43.3454
Flux out = 8.97115e-136

Adaptive time = 684.796
DILUPBiCGStab:  Solving for c, Initial residual = 0.00388674, Final residual = 6.64695e-11, No Iterations 3
Total mass = 43.9786
Flux out = 3.58965e-135

Adaptive time = 694.72
DILUPBiCGStab:  Solving for c, Initial residual = 0.00383383, Final residual = 6.0758e-11, No Iterations 3
Total mass = 44.6118
Flux out = 1.43126e-134

Adaptive time = 704.645
DILUPBiCGStab:  Solving for c, Initial residual = 0.00378242, Final residual = 5.72391e-11, No Iterations 3
Total mass = 45.245
Flux out = 5.6867e-134

Adaptive time = 714.569
DILUPBiCGStab:  Solving for c, Initial residual = 0.00373244, Final residual = 5.45824e-11, No Iterations 3
Total mass = 45.8782
Flux out = 2.25167e-133

Adaptive time = 724.494
DILUPBiCGStab:  Solving for c, Initial residual = 0.00368384, Final residual = 5.22544e-11, No Iterations 3
Total mass = 46.5113
Flux out = 8.88525e-133

Adaptive time = 734.418
DILUPBiCGStab:  Solving for c, Initial residual = 0.00363657, Final residual = 5.00475e-11, No Iterations 3
Total mass = 47.1445
Flux out = 3.49447e-132

Adaptive time = 744.343
DILUPBiCGStab:  Solving for c, Initial residual = 0.00359054, Final residual = 4.79358e-11, No Iterations 3
Total mass = 47.7777
Flux out = 1.36981e-131

Adaptive time = 754.268
DILUPBiCGStab:  Solving for c, Initial residual = 0.00354573, Final residual = 4.59297e-11, No Iterations 3
Total mass = 48.4108
Flux out = 5.35223e-131

Adaptive time = 764.192
DILUPBiCGStab:  Solving for c, Initial residual = 0.0035021, Final residual = 4.40806e-11, No Iterations 3
Total mass = 49.044
Flux out = 2.08459e-130

Adaptive time = 774.117
DILUPBiCGStab:  Solving for c, Initial residual = 0.00345959, Final residual = 4.24254e-11, No Iterations 3
Total mass = 49.6771
Flux out = 8.09354e-130

Adaptive time = 784.041
DILUPBiCGStab:  Solving for c, Initial residual = 0.00341816, Final residual = 4.09837e-11, No Iterations 3
Total mass = 50.3103
Flux out = 3.13258e-129

Adaptive time = 793.966
DILUPBiCGStab:  Solving for c, Initial residual = 0.00337778, Final residual = 3.97786e-11, No Iterations 3
Total mass = 50.9434
Flux out = 1.20871e-128

Adaptive time = 803.89
DILUPBiCGStab:  Solving for c, Initial residual = 0.00333838, Final residual = 3.8787e-11, No Iterations 3
Total mass = 51.5766
Flux out = 4.64947e-128

Adaptive time = 813.815
DILUPBiCGStab:  Solving for c, Initial residual = 0.00329995, Final residual = 3.80632e-11, No Iterations 3
Total mass = 52.2097
Flux out = 1.78298e-127

Adaptive time = 823.74
DILUPBiCGStab:  Solving for c, Initial residual = 0.00326246, Final residual = 3.75911e-11, No Iterations 3
Total mass = 52.8428
Flux out = 6.81631e-127

Adaptive time = 833.664
DILUPBiCGStab:  Solving for c, Initial residual = 0.00322586, Final residual = 3.73689e-11, No Iterations 3
Total mass = 53.476
Flux out = 2.59777e-126

Adaptive time = 843.589
DILUPBiCGStab:  Solving for c, Initial residual = 0.00319013, Final residual = 3.7505e-11, No Iterations 3
Total mass = 54.1091
Flux out = 9.86932e-126

Adaptive time = 853.513
DILUPBiCGStab:  Solving for c, Initial residual = 0.00315523, Final residual = 3.81612e-11, No Iterations 3
Total mass = 54.7422
Flux out = 3.73759e-125

Adaptive time = 863.438
DILUPBiCGStab:  Solving for c, Initial residual = 0.00312114, Final residual = 3.91908e-11, No Iterations 3
Total mass = 55.3754
Flux out = 1.41088e-124

Adaptive time = 873.362
DILUPBiCGStab:  Solving for c, Initial residual = 0.00308782, Final residual = 4.05229e-11, No Iterations 3
Total mass = 56.0085
Flux out = 5.30829e-124

Adaptive time = 883.287
DILUPBiCGStab:  Solving for c, Initial residual = 0.00305525, Final residual = 4.2055e-11, No Iterations 3
Total mass = 56.6416
Flux out = 1.99048e-123

Adaptive time = 893.212
DILUPBiCGStab:  Solving for c, Initial residual = 0.00302342, Final residual = 4.37222e-11, No Iterations 3
Total mass = 57.2747
Flux out = 7.43808e-123

Adaptive time = 903.136
DILUPBiCGStab:  Solving for c, Initial residual = 0.00299228, Final residual = 4.54822e-11, No Iterations 3
Total mass = 57.9078
Flux out = 2.76967e-122

Adaptive time = 913.061
DILUPBiCGStab:  Solving for c, Initial residual = 0.00296183, Final residual = 4.7271e-11, No Iterations 3
Total mass = 58.5409
Flux out = 1.02759e-121

Adaptive time = 922.985
DILUPBiCGStab:  Solving for c, Initial residual = 0.00293204, Final residual = 4.90223e-11, No Iterations 3
Total mass = 59.1741
Flux out = 3.79829e-121

Adaptive time = 932.91
DILUPBiCGStab:  Solving for c, Initial residual = 0.00290288, Final residual = 5.06981e-11, No Iterations 3
Total mass = 59.8072
Flux out = 1.39859e-120

Adaptive time = 942.834
DILUPBiCGStab:  Solving for c, Initial residual = 0.00287433, Final residual = 5.22752e-11, No Iterations 3
Total mass = 60.4403
Flux out = 5.12957e-120

Adaptive time = 952.759
DILUPBiCGStab:  Solving for c, Initial residual = 0.00284638, Final residual = 5.37192e-11, No Iterations 3
Total mass = 61.0734
Flux out = 1.87373e-119

Adaptive time = 962.684
DILUPBiCGStab:  Solving for c, Initial residual = 0.00281902, Final residual = 5.49583e-11, No Iterations 3
Total mass = 61.7065
Flux out = 6.81588e-119

Adaptive time = 972.608
DILUPBiCGStab:  Solving for c, Initial residual = 0.00279221, Final residual = 5.59285e-11, No Iterations 3
Total mass = 62.3396
Flux out = 2.46875e-118

Adaptive time = 982.533
DILUPBiCGStab:  Solving for c, Initial residual = 0.00276595, Final residual = 5.65931e-11, No Iterations 3
Total mass = 62.9727
Flux out = 8.90268e-118

Adaptive time = 992.457
DILUPBiCGStab:  Solving for c, Initial residual = 0.00274022, Final residual = 5.69443e-11, No Iterations 3
Total mass = 63.6058
Flux out = 3.19601e-117

Adaptive time = 1002.38
DILUPBiCGStab:  Solving for c, Initial residual = 0.002715, Final residual = 5.69895e-11, No Iterations 3
Total mass = 64.2389
Flux out = 1.14207e-116

Adaptive time = 1012.31
DILUPBiCGStab:  Solving for c, Initial residual = 0.00269026, Final residual = 5.67469e-11, No Iterations 3
Total mass = 64.8719
Flux out = 4.06186e-116

Adaptive time = 1022.23
DILUPBiCGStab:  Solving for c, Initial residual = 0.00266602, Final residual = 5.62444e-11, No Iterations 3
Total mass = 65.505
Flux out = 1.43769e-115

Adaptive time = 1032.16
DILUPBiCGStab:  Solving for c, Initial residual = 0.00264225, Final residual = 5.55227e-11, No Iterations 3
Total mass = 66.1381
Flux out = 5.06378e-115

Adaptive time = 1042.08
DILUPBiCGStab:  Solving for c, Initial residual = 0.00261892, Final residual = 5.4636e-11, No Iterations 3
Total mass = 66.7712
Flux out = 1.77465e-114

Adaptive time = 1052
DILUPBiCGStab:  Solving for c, Initial residual = 0.00259605, Final residual = 5.36503e-11, No Iterations 3
Total mass = 67.4043
Flux out = 6.18788e-114

Adaptive time = 1061.93
DILUPBiCGStab:  Solving for c, Initial residual = 0.00257361, Final residual = 5.26125e-11, No Iterations 3
Total mass = 68.0374
Flux out = 2.1465e-113

Adaptive time = 1071.85
DILUPBiCGStab:  Solving for c, Initial residual = 0.00255157, Final residual = 5.15601e-11, No Iterations 3
Total mass = 68.6705
Flux out = 7.40708e-113

Adaptive time = 1081.78
DILUPBiCGStab:  Solving for c, Initial residual = 0.00252995, Final residual = 5.05586e-11, No Iterations 3
Total mass = 69.3035
Flux out = 2.54252e-112

Adaptive time = 1091.7
DILUPBiCGStab:  Solving for c, Initial residual = 0.00250872, Final residual = 4.97064e-11, No Iterations 3
Total mass = 69.9366
Flux out = 8.68073e-112

Adaptive time = 1101.63
DILUPBiCGStab:  Solving for c, Initial residual = 0.00248788, Final residual = 4.9033e-11, No Iterations 3
Total mass = 70.5697
Flux out = 2.94782e-111

Adaptive time = 1111.55
DILUPBiCGStab:  Solving for c, Initial residual = 0.00246741, Final residual = 4.8626e-11, No Iterations 3
Total mass = 71.2028
Flux out = 9.95581e-111

Adaptive time = 1121.48
DILUPBiCGStab:  Solving for c, Initial residual = 0.00244731, Final residual = 4.84598e-11, No Iterations 3
Total mass = 71.8358
Flux out = 3.344e-110

Adaptive time = 1131.4
DILUPBiCGStab:  Solving for c, Initial residual = 0.00242756, Final residual = 4.84075e-11, No Iterations 3
Total mass = 72.4689
Flux out = 1.117e-109

Adaptive time = 1141.33
DILUPBiCGStab:  Solving for c, Initial residual = 0.00240815, Final residual = 4.84044e-11, No Iterations 3
Total mass = 73.102
Flux out = 3.71047e-109

Adaptive time = 1151.25
DILUPBiCGStab:  Solving for c, Initial residual = 0.00238908, Final residual = 4.84185e-11, No Iterations 3
Total mass = 73.7351
Flux out = 1.22568e-108

Adaptive time = 1161.18
DILUPBiCGStab:  Solving for c, Initial residual = 0.00237034, Final residual = 4.84048e-11, No Iterations 3
Total mass = 74.3681
Flux out = 4.02616e-108

Adaptive time = 1171.1
DILUPBiCGStab:  Solving for c, Initial residual = 0.00235192, Final residual = 4.83331e-11, No Iterations 3
Total mass = 75.0012
Flux out = 1.31511e-107

Adaptive time = 1181.02
DILUPBiCGStab:  Solving for c, Initial residual = 0.00233381, Final residual = 4.81665e-11, No Iterations 3
Total mass = 75.6343
Flux out = 4.27156e-107

Adaptive time = 1190.95
DILUPBiCGStab:  Solving for c, Initial residual = 0.00231601, Final residual = 4.78675e-11, No Iterations 3
Total mass = 76.2673
Flux out = 1.37962e-106

Adaptive time = 1200.87
DILUPBiCGStab:  Solving for c, Initial residual = 0.0022985, Final residual = 4.74205e-11, No Iterations 3
Total mass = 76.9004
Flux out = 4.43077e-106

Adaptive time = 1210.8
[...]
[57] 
[57] 
[57] --> FOAM FATAL ERROR: 
[57] Concentration under the threshold
[57] 
[57] 
[57]     From function macroScalarTransport
[57]     in file macroScalarTransport.C at line 98.
[57] 
FOAM parallel run exiting
[57] 
[17] 
[17] 
[17] --> FOAM FATAL ERROR: 
[17] Concentration under the threshold
[17] 
[17] 
[17] [83] 
    From function macroScalarTransport
[17]     in file macroScalarTransport.C at line 98.
[17] [83] 
[83] --> FOAM FATAL ERROR: 
[83] Concentration under the threshold
[83] 
[83] 
[83]     From function macroScalarTransport
[83]     in file macroScalarTransport.C at line 98.
[83] 
FOAM parallel run exiting
[83] 

FOAM parallel run exiting
[17] 
[19] 
[19] 
[19] --> FOAM FATAL ERROR: 
[19] Concentration under the threshold
[19] 
[19] 
[19]     From function macroScalarTransport
[19]     in file macroScalarTransport.C at line 98.[85] 
[19] 
FOAM parallel run exiting
[19] 

[85] 
[85] --> FOAM FATAL ERROR: 
[85] Concentration under the threshold
[85] 
[85] 
[85]     From function macroScalarTransport
[85]     in file macroScalarTransport.C at line 98.
[85] 
FOAM parallel run exiting
[85] 
[73] 
[73] 
[73] --> FOAM FATAL ERROR: 
[73] Concentration under the threshold
[73] [49] 
[49] 
[49] --> FOAM FATAL ERROR: 
[49] Concentration under the threshold
[49] 
[49] 
[49]     From function macroScalarTransport
[49]     in file macroScalarTransport.C at line 98.

[73] 
[73]     From function macroScalarTransport
[73]     in file macroScalarTransport.C at line 98.
[73] 
FOAM parallel run exiting
[73] 
[49] 
FOAM parallel run exiting
[49] 
[24] 
[24] 
[24] --> FOAM FATAL ERROR: 
[24] Concentration under the threshold
[24] 
[75] [24] 
[24]     From function macroScalarTransport
[24]     in file macroScalarTransport.C at line 98.
[24] 
FOAM parallel run exiting
[24] 

[75] 
[93] [75] --> FOAM FATAL ERROR: 
[75] Concentration under the threshold
[75] 
[75] 
[75]     From function macroScalarTransport
[75]     in file macroScalarTransport.C at line 98.
[75] 
FOAM parallel run exiting
[75] 

[93] 
[93] --> FOAM FATAL ERROR: 
[93] Concentration under the threshold
[93] 
[93] 
[93]     From function macroScalarTransport
[93]     in file macroScalarTransport.C at line 98.
[93] 
FOAM parallel run exiting
[93] 
[0] 
[0] 
[0] --> FOAM FATAL ERROR: 
[0] Concentration under the threshold
[0] 
[0] 
[0]     From function macroScalarTransport
[0]     in file macroScalarTransport.C at line 98.
[0] 
FOAM parallel run exiting
[0] 
[22] [89] [72] 
[22] 
[22] --> FOAM FATAL ERROR: 
[22] Concentration under the threshold
[22] 
[22] 

[89] 
[89] 
[72] 
[72] --> FOAM FATAL ERROR: 
[72] Concentration under the threshold
[22]     From function macroScalarTransport
[22]     in file macroScalarTransport.C at line 98.
[22] 
FOAM parallel run exiting
[22] 
--> FOAM FATAL ERROR: 
[89] Concentration under the threshold
[89] 
[89] 
[89]     From function macroScalarTransport
[89]     in file macroScalarTransport.C[72] 
[72] 
[72]     From function macroScalarTransport
[72]     in file macroScalarTransport.C at line 98.
[72]  at line 98.
[89] 
FOAM parallel run exiting
[89] 

FOAM parallel run exiting
[72] 
[88] 
[88] 
[88] --> FOAM FATAL ERROR: 
[88] Concentration under the threshold
[88] 
[88] 
[88]     From function macroScalarTransport
[88] [21]     in file macroScalarTransport.C at line 98.
[88] 
FOAM parallel run exiting
[88] 

[21] 
[21] --> FOAM FATAL ERROR: 
[21] Concentration under the threshold
[21] 
[21] 
[21]     From function macroScalarTransport
[21]     in file macroScalarTransport.C at line 98.
[21] 
FOAM parallel run exiting
[21] 
[30] 
[30] 
[30] [94] 
[94] --> FOAM FATAL ERROR: 
[30] Concentration under the threshold
[30] 
[30] 
[30]     From function macroScalarTransport
[30]     in file macroScalarTransport.C at line 98.
[30] 
FOAM parallel run exiting
[30] 

[94] --> FOAM FATAL ERROR: 
[94] Concentration under the threshold
[94] 
[94] 
[94]     From function macroScalarTransport
[94]     in file [8] 
[8] 
[8] --> FOAM FATAL ERROR: 
macroScalarTransport.C at line 98.
[94] 
FOAM parallel run exiting
[94] 
[8] Concentration under the threshold
[8] 
[8] 
[8]     From function macroScalarTransport
[8]     in file macroScalarTransport.C at line 98.
[8] 
FOAM parallel run exiting
[8] 
[58] 
[58] 
[58] --> FOAM FATAL ERROR: 
[58] Concentration under the threshold
[58] 
[58] 
[58]     From function macroScalarTransport
[58]     in file macroScalarTransport.C at line 98.
[58] 
FOAM parallel run exiting
[58] 
[77] 
[77] 
[77] --> FOAM FATAL ERROR: 
[77] Concentration under the threshold
[77] [26] 
[77] 
[77]     From function macroScalarTransport
[77]     in file macroScalarTransport.C at line 
[26] 
[26] --> FOAM FATAL ERROR: 
[26] Concentration under the threshold
[26] 
[26] 
[26]     From function macroScalarTransport
[26]     in file macroScalarTransport.C at line 98.
[26] 
FOAM parallel run exiting
[26] 
98.
[77] 
FOAM parallel run exiting
[77] 
[51] 
[51] 
[51] --> FOAM FATAL ERROR: 
[51] Concentration under the threshold
[51] [32] 
[51] 
[51]     From function macroScalarTransport
[51]     in file macroScalarTransport.C at line 98.
[51] 
FOAM parallel run exiting
[51] 

[32] 
[32] --> FOAM FATAL ERROR: 
[32] Concentration under the threshold
[32] 
[32] 
[32]     From function macroScalarTransport
[32]     in file macroScalarTransport.C at line 98.
[32] 
FOAM parallel run exiting
[32] 
[90] [13] 
[90] 
[90] --> FOAM FATAL ERROR: 
[90] Concentration under the threshold
[90] 
[90] 

[13] [90]     From function macroScalarTransport
[90]     in file macroScalarTransport.C at line 98
[13] --> FOAM FATAL ERROR: 
[13] Concentration under the threshold
[13] 
[13] 
[13]     From function macroScalarTransport
[13]     in file macroScalarTransport.C.
[90] 
FOAM parallel run exiting
[90] 
 at line 98.
[13] 
FOAM parallel run exiting
[13] 
[48] 
[48] 
[48] --> FOAM FATAL ERROR: 
[48] Concentration under the threshold
[48] 
[48] 
[48]     From function macroScalarTransport
[48]     in file macroScalarTransport.C at line 98.
[48] 
FOAM parallel run exiting
[48] 
[56] 
[56] 
[56] --> FOAM FATAL ERROR: 
[56] Concentration under the threshold
[56] 
[56] 
[56]     From function macroScalarTransport
[56]     in file macroScalarTransport.C at line 98.
[56] 
FOAM parallel run exiting
[56] 
[34] 
[34] 
[34] --> FOAM FATAL ERROR: 
[34] [16] Concentration under the threshold
[34] 
[34] 
[34]     From function macroScalarTransport
[34]     in file macroScalarTransport.C at line 98.
[34] 
FOAM parallel run exiting
[34] 
[41] 
[41] 
[41] --> FOAM FATAL ERROR: 
[41] Concentration under the threshold
[41] 
[41] 
[41]     From function macroScalarTransport
[41] 
[16] 
[16] --> FOAM FATAL ERROR: 
[16] Concentration under the threshold
[16] 
[16] 
[16]     From function macroScalarTransport
[16]     in file     in file macroScalarTransport.C at line 98.
[41] 
FOAM parallel run exiting
[41] 
macroScalarTransport.C at line 98.
[16] 
FOAM parallel run exiting
[16] 
[45] 
[45] 
[45] --> FOAM FATAL ERROR: 
[45] Concentration under the threshold
[45] 
[45] 
[45]     From function macroScalarTransport
[45]     in file macroScalarTransport.C at line 98.
[45] 
FOAM parallel run exiting
[45] 
[84] 
[84] 
[84] --> FOAM FATAL ERROR: 
[84] Concentration under the threshold
[84] 
[84] 
[84]     From function macroScalarTransport
[84]     in file macroScalarTransport.C at line 98.
[84] 
FOAM parallel run exiting
[84] 
[53] 
[53] 
[53] --> FOAM FATAL ERROR: 
[53] Concentration under the threshold
[53] 
[53] 
[53]     From function macroScalarTransport
[53]     in file macroScalarTransport.C at line 98.
[53] 
FOAM parallel run exiting
[53] 
[39] 
[39] 
[39] --> FOAM FATAL ERROR: 
[39] Concentration under the threshold
[39] 
[39] 
[39]     From function macroScalarTransport
[39]     in file macroScalarTransport.C at line 98.
[39] 
FOAM parallel run exiting
[39] 
[35] 
[35] 
[35] --> FOAM FATAL ERROR: 
[35] Concentration under the threshold
[35] 
[35] 
[35]     From function macroScalarTransport
[35]     in file macroScalarTransport.C at line [37] 
98.
[35] 
FOAM parallel run exiting
[35] 
[37] 
[37] --> FOAM FATAL ERROR: 
[37] Concentration under the threshold
[37] 
[37] 
[37]     From function macroScalarTransport
[37]     in file macroScalarTransport.C at line [50] 
[50] 
[50] --> FOAM FATAL ERROR: 
[50] Concentration under the threshold
[6] 
[6] 
[6] --> FOAM FATAL ERROR: 
[6] Concentration under the threshold
[6] 
[6] 
[6]     From function 98.
[37] 
FOAM parallel run exiting
[37] 
[50] 
[50] 
[50]     From function macroScalarTransport
[50]     in file macroScalarTransport.C at line 98.
[50] 
FOAM parallel run exiting
[50] 
macroScalarTransport
[6]     in file macroScalarTransport.C at line 98.
[6] 
FOAM parallel run exiting
[6] 
[74] 
[74] 
[74] --> FOAM FATAL ERROR: 
[74] Concentration under the threshold
[74] 
[74] 
[74]     From function macroScalarTransport
[74]     in file macroScalarTransport.C at line 98.
[74] 
FOAM parallel run exiting
[74] 
[79] [80] 
[79] 
[79] --> FOAM FATAL ERROR: 
[79] Concentration under the threshold
[79] 
[79] 
[80] 
[80] --> FOAM FATAL ERROR: 
[80] Concentration under the threshold

[79]     From function macroScalarTransport
[79]     in file macroScalarTransport.C at line 98.
[79] 
FOAM parallel run exiting
[79] 
[80] 
[80] 
[80]     From function macroScalarTransport
[80]     in file macroScalarTransport.C at line 98.
[80] 
FOAM parallel run exiting
[80] 
[40] 
[40] 
[40] --> FOAM FATAL ERROR: 
[40] Concentration under the threshold
[40] 
[40] 
[40]     From function macroScalarTransport
[40]     in file macroScalarTransport.C at line 98.
[40] 
FOAM parallel run exiting
[40] 
[47] 
[47] 
[18] [47] --> FOAM FATAL ERROR: 
[47] Concentration under the threshold
[47] 
[47] 
[47]     From function macroScalarTransport
[47]     in file macroScalarTransport.C at line 98.
[47] 
FOAM parallel run exiting
[47] 

[18] 
[18] --> FOAM FATAL ERROR: 
[18] Concentration under the threshold
[18] 
[18] 
[18]     From function macroScalarTransport
[18]     in file macroScalarTransport.C at line 98.
[18] 
FOAM parallel run exiting
[18] 
[36] [42] 
[36] 
[36] --> FOAM FATAL ERROR: 
[36] Concentration under the threshold

[42] 
[42] --> FOAM FATAL ERROR: 
[42] Concentration under the threshold
[42] 
[42] 
[42] [36] 
[36] 
[36]     From function macroScalarTransport
[36]     in file macroScalarTransport.C at line 98.
[36] 
FOAM parallel run exiting
[36] 
    From function macroScalarTransport
[42]     in file macroScalarTransport.C at line 98.
[42] 
FOAM parallel run exiting
[42] 
[14] 
[14] 
[14] --> FOAM FATAL ERROR: 
[14] Concentration under the threshold
[14] 
[14] 
[14]     From function macroScalarTransport
[14]     in file macroScalarTransport.C at line 98.
[14] 
FOAM parallel run exiting
[14] 
[12] 
[12] 
[12] --> FOAM FATAL ERROR: 
[12] Concentration under the threshold
[12] 
[12] 
[12]     From function macroScalarTransport
[12]     in file macroScalarTransport.C at line 98.
[12] 
FOAM parallel run exiting
[12] 
[54] 
[54] 
[54] --> FOAM FATAL ERROR: 
[54] Concentration under the threshold
[4] 
[4] 
[4] --> FOAM FATAL ERROR: 
[4] Concentration under the threshold
[4] 
[54] 
[54] 
[54]     From function macroScalarTransport
[54]     in file macroScalarTransport.C at line 98.
[54] 
FOAM parallel run exiting
[54] [4] 
[4]     From function macroScalarTransport
[4]     in file macroScalarTransport.C at line 98.

[4] 
FOAM parallel run exiting
[4] 
[92] 
[92] 
[76] [44] 
[44] 
[44] [92] --> FOAM FATAL ERROR: 
[92] Concentration under the threshold
[92] 
[92] 
[92]     From function macroScalarTransport
[92]     in file 
[76] --> FOAM FATAL ERROR: 
[44] Concentration under the threshold
[44] 
[44] 
[44]     From function macroScalarTransport
[44]     in file macroScalarTransport.C at line 98.
[92] 
FOAM parallel run exiting
[92] 

[76] --> FOAM FATAL ERROR: 
[76] Concentration under the threshold
[76] 
[76] 
[76]     From function macroScalarTransport
macroScalarTransport.C at line 98.
[44] 
FOAM parallel run exiting
[44] 
[76]     in file macroScalarTransport.C at line 98.
[76] 
FOAM parallel run exiting
[76] 
[46] 
[46] 
[46] --> FOAM FATAL ERROR: 
[46] Concentration under the threshold
[46] 
[46] 
[46]     From function macroScalarTransport
[46]     in file macroScalarTransport.C at line 98.
[46] 
FOAM parallel run exiting
[46] 
[55] 
[55] 
[55] --> FOAM FATAL ERROR: 
[55] Concentration under the threshold
[55] 
[55] 
[55]     From function macroScalarTransport
[55]     in file macroScalarTransport.C at line 98.
[55] 
FOAM parallel run exiting
[55] 
[65] 
[65] 
[65] --> FOAM FATAL ERROR: 
[65] Concentration under the threshold
[65] 
[65] 
[65]     From function macroScalarTransport
[65]     in file macroScalarTransport.C at line 98.
[65] 
FOAM parallel run exiting
[65] 
[86] 
[86] 
[86] --> FOAM FATAL ERROR: 
[86] Concentration under the threshold
[86] 
[86] 
[86]     From function macroScalarTransport
[86] [78]     in file macroScalarTransport.C at line 98.
[86] 
FOAM parallel run exiting
[86] 

[78] 
[78] --> FOAM FATAL ERROR: 
[78] Concentration under the threshold
[78] 
[78] 
[78]     From function macroScalarTransport
[78]     in file macroScalarTransport.C[71]  at line 98.
[78] 
FOAM parallel run exiting
[78] 

[71] 
[71] --> FOAM FATAL ERROR: 
[71] Concentration under the threshold
[71] 
[71] 
[71]     From function macroScalarTransport
[71]     in file macroScalarTransport.C at line 98.
[71] 
FOAM parallel run exiting
[71] 
[64] 
[64] 
[64] --> FOAM FATAL ERROR: 
[64] Concentration under the threshold
[64] 
[64] 
[64]     From function macroScalarTransport
[64]     in file macroScalarTransport.C at line 98.
[64] 
FOAM parallel run exiting
[64] 
[67] 
[67] 
[67] --> FOAM FATAL ERROR: 
[67] Concentration under the threshold
[67] 
[67] 
[67]     From function macroScalarTransport
[67]     in file macroScalarTransport.C at line 98.
[67] 
FOAM parallel run exiting
[67] 
[20] 
[20] 
[20] --> FOAM FATAL ERROR: 
[20] Concentration under the threshold
[20] 
[20] 
[20]     From function macroScalarTransport
[20]     in file macroScalarTransport.C at line 98.
[20] 
FOAM parallel run exiting
[20] 
[69] 
[69] 
[69] --> FOAM FATAL ERROR: 
[69] Concentration under the threshold
[69] 
[69] 
[69]     From function macroScalarTransport
[69]     in file macroScalarTransport.C at line 98.
[69] 
FOAM parallel run exiting
[69] 
[15] 
[15] 
[15] --> FOAM FATAL ERROR: 
[15] Concentration under the threshold
[15] 
[15] 
[15]     From function macroScalarTransport
[15]     in file macroScalarTransport.C at line 98.
[15] 
FOAM parallel run exiting
[15] 
[66] 
[66] 
[66] --> FOAM FATAL ERROR: 
[66] Concentration under the threshold
[66] 
[66] 
[66]     From function macroScalarTransport
[66]     in file macroScalarTransport.C at line 98.
[66] 
FOAM parallel run exiting
[66] 
[43] 
[43] 
[43] --> FOAM FATAL ERROR: 
[43] Concentration under the threshold
[43] 
[43] 
[43]     From function macroScalarTransport
[43]     in file macroScalarTransport.C at line 98.
[43] 
FOAM parallel run exiting
[43] 
[61] [68] 
[61] 
[61] --> FOAM FATAL ERROR: 

[68] 
[68] --> FOAM FATAL ERROR: 
[68] Concentration under the threshold
[68] 
[68] 
[68]     From function macroScalarTransport
[68]     in file macroScalarTransport.C at line 98[61] Concentration under the threshold
[61] 
[61] 
[61]     From function macroScalarTransport
[61]     in file macroScalarTransport.C at line 98.
[61] 
FOAM parallel run exiting
[61] 
.
[68] 
FOAM parallel run exiting
[68] 
[70] 
[70] 
[70] --> FOAM FATAL ERROR: 
[70] Concentration under the threshold
[70] 
[70] 
[70]     From function macroScalarTransport
[70]     in file macroScalarTransport.C at line 98.
[70] 
FOAM parallel run exiting
[70] 
[63] 
[63] 
[63] --> FOAM FATAL ERROR: 
[63] Concentration under the threshold
[63] 
[63] 
[63]     From function macroScalarTransport
[63]     in file macroScalarTransport.C at line 98.
[63] 
FOAM parallel run exiting
[63] 
[82] 
[82] 
[82] --> FOAM FATAL ERROR: 
[82] Concentration under the threshold
[82] 
[82] 
[82]     From function macroScalarTransport
[82]     in file macroScalarTransport.C at line 98.
[82] 
FOAM parallel run exiting
[82] 
[60] 
[60] 
[60] --> FOAM FATAL ERROR: 
[60] Concentration under the threshold
[60] 
[60] 
[60]     From function macroScalarTransport
[60]     in file macroScalarTransport.C at line 98.
[60] 
FOAM parallel run exiting
[60] 
[62] 
[62] 
[62] --> FOAM FATAL ERROR: 
[62] Concentration under the threshold
[62] 
[62] 
[62]     From function macroScalarTransport
[62]     in file macroScalarTransport.C at line 98.
[62] 
FOAM parallel run exiting
[62] 
[29] 
[29] 
[29] --> FOAM FATAL ERROR: 
[29] Concentration under the threshold
[29] 
[29] 
[29]     From function macroScalarTransport
[29]     in file macroScalarTransport.C at line 98.
[29] 
FOAM parallel run exiting
[29] 
[28] 
[28] 
[28] --> FOAM FATAL ERROR: 
[28] Concentration under the threshold
[28] 
[28] 
[28]     From function macroScalarTransport
[28]     in file macroScalarTransport.C at line 98.
[28] 
FOAM parallel run exiting
[28] 
[52] 
[52] 
[52] --> FOAM FATAL ERROR: 
[52] Concentration under the threshold
[52] 
[52] 
[52]     From function macroScalarTransport
[52]     in file macroScalarTransport.C at line 98.
[52] 
FOAM parallel run exiting
[52] 
--------------------------------------------------------------------------
MPI_ABORT was invoked on rank 47 in communicator MPI COMMUNICATOR 3 SPLIT FROM 0
with errorcode 1.

NOTE: invoking MPI_ABORT causes Open MPI to kill all MPI processes.
You may or may not see output from other processes, depending on
exactly when Open MPI kills them.
--------------------------------------------------------------------------
[compute030.int.augusta.nottingham.ac.uk:137328] PMIX ERROR: UNREACHABLE in file server/pmix_server.c at line 2193
[compute030.int.augusta.nottingham.ac.uk:137328] PMIX ERROR: UNREACHABLE in file server/pmix_server.c at line 2193
[compute030.int.augusta.nottingham.ac.uk:137328] PMIX ERROR: UNREACHABLE in file server/pmix_server.c at line 2193
[compute030.int.augusta.nottingham.ac.uk:137328] PMIX ERROR: UNREACHABLE in file server/pmix_server.c at line 2193
[compute030.int.augusta.nottingham.ac.uk:137328] PMIX ERROR: UNREACHABLE in file server/pmix_server.c at line 2193
[compute030.int.augusta.nottingham.ac.uk:137328] PMIX ERROR: UNREACHABLE in file server/pmix_server.c at line 2193
[compute030.int.augusta.nottingham.ac.uk:137328] PMIX ERROR: UNREACHABLE in file server/pmix_server.c at line 2193
[compute030.int.augusta.nottingham.ac.uk:137328] PMIX ERROR: UNREACHABLE in file server/pmix_server.c at line 2193
[compute030.int.augusta.nottingham.ac.uk:137328] PMIX ERROR: UNREACHABLE in file server/pmix_server.c at line 2193
[compute030.int.augusta.nottingham.ac.uk:137328] PMIX ERROR: UNREACHABLE in file server/pmix_server.c at line 2193
[compute030.int.augusta.nottingham.ac.uk:137328] PMIX ERROR: UNREACHABLE in file server/pmix_server.c at line 2193
[compute030.int.augusta.nottingham.ac.uk:137328] PMIX ERROR: UNREACHABLE in file server/pmix_server.c at line 2193
[2] 
[2] 
[2] --> FOAM FATAL ERROR: 
[2] Concentration under the threshold
[2] 
[2] 
[2]     From function macroScalarTransport
[2]     in file macroScalarTransport.C at line 98.
[2] 
FOAM parallel run exiting
[2] 
[38] 
[38] 
[38] --> FOAM FATAL ERROR: 
[38] Concentration under the threshold
[38] 
[38] 
[38]     From function macroScalarTransport
[38]     in file macroScalarTransport.C at line 98.
[38] 
FOAM parallel run exiting
[38] 
[59] 
[59] 
[59] --> FOAM FATAL ERROR: 
[59] Concentration under the threshold
[59] 
[59] 
[59]     From function macroScalarTransport
[59]     in file macroScalarTransport.C at line 98.
[59] 
FOAM parallel run exiting
[59] 
[compute030.int.augusta.nottingham.ac.uk:137328] 95 more processes have sent help message help-mpi-api.txt / mpi-abort
[compute030.int.augusta.nottingham.ac.uk:137328] Set MCA parameter "orte_base_help_aggregate" to 0 to see all help / error messages
