/*---------------------------------------------------------------------------*\
  =========                 |
  \\      /  F ield         | OpenFOAM: The Open Source CFD Toolbox
   \\    /   O peration     | Website:  https://openfoam.org
    \\  /    A nd           | Version:  8
     \\/     M anipulation  |
\*---------------------------------------------------------------------------*/
Build  : 8
Exec   : blockMesh
Date   : Nov 19 2022
Time   : 07:16:16
Host   : "compute014.int.augusta.nottingham.ac.uk"
PID    : 12445
I/O    : uncollated
Case   : /gpfs01/home/pmxep5/PGSFlowTransport/tutorials/RESULTS/Herten/varMecDisp/varMecDisp1e-2alpha
nProcs : 1
sigFpe : Enabling floating point exception trapping (FOAM_SIGFPE).
fileModificationChecking : Monitoring run-time modified files using timeStampMaster (fileModificationSkew 10)
allowSystemOperations : Allowing user-supplied system call operations

// * * * * * * * * * * * * * * * * * * * * * * * * * * * * * * * * * * * * * //
Create time

Deleting polyMesh directory
    "/gpfs01/home/pmxep5/PGSFlowTransport/tutorials/RESULTS/Herten/varMecDisp/varMecDisp1e-2alpha/constant/polyMesh"
Creating block mesh from
    "system/blockMeshDict"
Creating block edges
No non-planar block faces defined
Creating topology blocks
Creating topology patches

Creating block mesh topology

Check topology

	Basic statistics
		Number of internal faces : 0
		Number of boundary faces : 6
		Number of defined boundary faces : 6
		Number of undefined boundary faces : 0
	Checking patch -> block consistency

Creating block offsets
Creating merge list .

Creating polyMesh from blockMesh
Creating patches
Creating cells
Creating points with scale 1
    Block 0 cell size :
        i : 0.05 .. 0.05
        j : 0.05 .. 0.05
        k : 0.05 .. 0.05

Writing polyMesh
----------------
Mesh Information
----------------
  boundingBox: (0 0 0) (16 10 7)
  nPoints: 9097461
  nCells: 8960000
  nFaces: 27016800
  nInternalFaces: 26743200
----------------
Patches
----------------
  patch 0 (start: 26743200 size: 28000) name: inlet
  patch 1 (start: 26771200 size: 28000) name: outlet
  patch 2 (start: 26799200 size: 64000) name: lowerWall
  patch 3 (start: 26863200 size: 64000) name: upperWall
  patch 4 (start: 26927200 size: 89600) name: frontAndBack

End

/*---------------------------------------------------------------------------*\
  =========                 |
  \\      /  F ield         | OpenFOAM: The Open Source CFD Toolbox
   \\    /   O peration     | Website:  https://openfoam.org
    \\  /    A nd           | Version:  8
     \\/     M anipulation  |
\*---------------------------------------------------------------------------*/
Build  : 8
Exec   : decomposePar
Date   : Nov 19 2022
Time   : 07:17:09
Host   : "compute014.int.augusta.nottingham.ac.uk"
PID    : 12464
I/O    : uncollated
Case   : /gpfs01/home/pmxep5/PGSFlowTransport/tutorials/RESULTS/Herten/varMecDisp/varMecDisp1e-2alpha
nProcs : 1
sigFpe : Enabling floating point exception trapping (FOAM_SIGFPE).
fileModificationChecking : Monitoring run-time modified files using timeStampMaster (fileModificationSkew 10)
allowSystemOperations : Allowing user-supplied system call operations

// * * * * * * * * * * * * * * * * * * * * * * * * * * * * * * * * * * * * * //
Create time



Decomposing mesh region0

Create mesh

Calculating distribution of cells
Selecting decompositionMethod simple

Finished decomposition in 5.93 s

Calculating original mesh data

Distributing cells to processors

Distributing faces to processors

Distributing points to processors

Constructing processor meshes

Processor 0
    Number of cells = 94000
    Number of faces shared with processor 1 = 2350
    Number of faces shared with processor 8 = 1880
    Number of faces shared with processor 32 = 2000
    Number of processor patches = 3
    Number of processor faces = 6230
    Number of boundary faces = 6230

Processor 1
    Number of cells = 94000
    Number of faces shared with processor 0 = 2350
    Number of faces shared with processor 2 = 2350
    Number of faces shared with processor 9 = 1880
    Number of faces shared with processor 33 = 2000
    Number of processor patches = 4
    Number of processor faces = 8580
    Number of boundary faces = 3880

Processor 2
    Number of cells = 94000
    Number of faces shared with processor 1 = 2350
    Number of faces shared with processor 3 = 2350
    Number of faces shared with processor 10 = 1880
    Number of faces shared with processor 34 = 2000
    Number of processor patches = 4
    Number of processor faces = 8580
    Number of boundary faces = 3880

Processor 3
    Number of cells = 94000
    Number of faces shared with processor 2 = 2350
    Number of faces shared with processor 4 = 2350
    Number of faces shared with processor 11 = 1880
    Number of faces shared with processor 35 = 2000
    Number of processor patches = 4
    Number of processor faces = 8580
    Number of boundary faces = 3880

Processor 4
    Number of cells = 94000
    Number of faces shared with processor 3 = 2350
    Number of faces shared with processor 5 = 2350
    Number of faces shared with processor 12 = 1880
    Number of faces shared with processor 36 = 2000
    Number of processor patches = 4
    Number of processor faces = 8580
    Number of boundary faces = 3880

Processor 5
    Number of cells = 94000
    Number of faces shared with processor 4 = 2350
    Number of faces shared with processor 6 = 2350
    Number of faces shared with processor 13 = 1880
    Number of faces shared with processor 37 = 2000
    Number of processor patches = 4
    Number of processor faces = 8580
    Number of boundary faces = 3880

Processor 6
    Number of cells = 93864
    Number of faces shared with processor 5 = 2350
    Number of faces shared with processor 7 = 2332
    Number of faces shared with processor 14 = 1863
    Number of faces shared with processor 38 = 2032
    Number of faces shared with processor 39 = 2
    Number of faces shared with processor 46 = 1
    Number of processor patches = 6
    Number of processor faces = 8580
    Number of boundary faces = 3880

Processor 7
    Number of cells = 92528
    Number of faces shared with processor 6 = 2332
    Number of faces shared with processor 15 = 1840
    Number of faces shared with processor 39 = 2064
    Number of processor patches = 3
    Number of processor faces = 6236
    Number of boundary faces = 6172

Processor 8
    Number of cells = 94000
    Number of faces shared with processor 0 = 1880
    Number of faces shared with processor 9 = 2350
    Number of faces shared with processor 16 = 1880
    Number of faces shared with processor 40 = 2000
    Number of processor patches = 4
    Number of processor faces = 8110
    Number of boundary faces = 4350

Processor 9
    Number of cells = 94000
    Number of faces shared with processor 1 = 1880
    Number of faces shared with processor 8 = 2350
    Number of faces shared with processor 10 = 2350
    Number of faces shared with processor 17 = 1880
    Number of faces shared with processor 41 = 2000
    Number of processor patches = 5
    Number of processor faces = 10460
    Number of boundary faces = 2000

Processor 10
    Number of cells = 94000
    Number of faces shared with processor 2 = 1880
    Number of faces shared with processor 9 = 2350
    Number of faces shared with processor 11 = 2350
    Number of faces shared with processor 18 = 1880
    Number of faces shared with processor 42 = 2000
    Number of processor patches = 5
    Number of processor faces = 10460
    Number of boundary faces = 2000

Processor 11
    Number of cells = 94000
    Number of faces shared with processor 3 = 1880
    Number of faces shared with processor 10 = 2350
    Number of faces shared with processor 12 = 2350
    Number of faces shared with processor 19 = 1880
    Number of faces shared with processor 43 = 2000
    Number of processor patches = 5
    Number of processor faces = 10460
    Number of boundary faces = 2000

Processor 12
    Number of cells = 94000
    Number of faces shared with processor 4 = 1880
    Number of faces shared with processor 11 = 2350
    Number of faces shared with processor 13 = 2350
    Number of faces shared with processor 20 = 1880
    Number of faces shared with processor 44 = 2000
    Number of processor patches = 5
    Number of processor faces = 10460
    Number of boundary faces = 2000

Processor 13
    Number of cells = 93649
    Number of faces shared with processor 5 = 1880
    Number of faces shared with processor 12 = 2350
    Number of faces shared with processor 14 = 2323
    Number of faces shared with processor 21 = 1853
    Number of faces shared with processor 45 = 2052
    Number of faces shared with processor 46 = 1
    Number of faces shared with processor 53 = 1
    Number of processor patches = 7
    Number of processor faces = 10460
    Number of boundary faces = 2000

Processor 14
    Number of cells = 92276
    Number of faces shared with processor 6 = 1863
    Number of faces shared with processor 13 = 2323
    Number of faces shared with processor 15 = 2300
    Number of faces shared with processor 22 = 1840
    Number of faces shared with processor 46 = 2046
    Number of processor patches = 5
    Number of processor faces = 10372
    Number of boundary faces = 2000

Processor 15
    Number of cells = 92000
    Number of faces shared with processor 7 = 1840
    Number of faces shared with processor 14 = 2300
    Number of faces shared with processor 23 = 1840
    Number of faces shared with processor 47 = 2000
    Number of processor patches = 4
    Number of processor faces = 7980
    Number of boundary faces = 4300

Processor 16
    Number of cells = 94000
    Number of faces shared with processor 8 = 1880
    Number of faces shared with processor 17 = 2350
    Number of faces shared with processor 24 = 1880
    Number of faces shared with processor 48 = 2000
    Number of processor patches = 4
    Number of processor faces = 8110
    Number of boundary faces = 4350

Processor 17
    Number of cells = 94000
    Number of faces shared with processor 9 = 1880
    Number of faces shared with processor 16 = 2350
    Number of faces shared with processor 18 = 2350
    Number of faces shared with processor 25 = 1880
    Number of faces shared with processor 49 = 2000
    Number of processor patches = 5
    Number of processor faces = 10460
    Number of boundary faces = 2000

Processor 18
    Number of cells = 94000
    Number of faces shared with processor 10 = 1880
    Number of faces shared with processor 17 = 2350
    Number of faces shared with processor 19 = 2350
    Number of faces shared with processor 26 = 1880
    Number of faces shared with processor 50 = 2000
    Number of processor patches = 5
    Number of processor faces = 10460
    Number of boundary faces = 2000

Processor 19
    Number of cells = 94000
    Number of faces shared with processor 11 = 1880
    Number of faces shared with processor 18 = 2350
    Number of faces shared with processor 20 = 2350
    Number of faces shared with processor 27 = 1880
    Number of faces shared with processor 51 = 2000
    Number of processor patches = 5
    Number of processor faces = 10460
    Number of boundary faces = 2000

Processor 20
    Number of cells = 93334
    Number of faces shared with processor 12 = 1880
    Number of faces shared with processor 19 = 2350
    Number of faces shared with processor 21 = 2313
    Number of faces shared with processor 28 = 1843
    Number of faces shared with processor 52 = 2072
    Number of faces shared with processor 53 = 1
    Number of faces shared with processor 60 = 1
    Number of processor patches = 7
    Number of processor faces = 10460
    Number of boundary faces = 2000

Processor 21
    Number of cells = 92091
    Number of faces shared with processor 13 = 1853
    Number of faces shared with processor 20 = 2313
    Number of faces shared with processor 22 = 2300
    Number of faces shared with processor 29 = 1840
    Number of faces shared with processor 53 = 2026
    Number of processor patches = 5
    Number of processor faces = 10332
    Number of boundary faces = 2000

Processor 22
    Number of cells = 92000
    Number of faces shared with processor 14 = 1840
    Number of faces shared with processor 21 = 2300
    Number of faces shared with processor 23 = 2300
    Number of faces shared with processor 30 = 1840
    Number of faces shared with processor 54 = 2000
    Number of processor patches = 5
    Number of processor faces = 10280
    Number of boundary faces = 2000

Processor 23
    Number of cells = 92000
    Number of faces shared with processor 15 = 1840
    Number of faces shared with processor 22 = 2300
    Number of faces shared with processor 31 = 1840
    Number of faces shared with processor 55 = 2000
    Number of processor patches = 4
    Number of processor faces = 7980
    Number of boundary faces = 4300

Processor 24
    Number of cells = 94000
    Number of faces shared with processor 16 = 1880
    Number of faces shared with processor 25 = 2350
    Number of faces shared with processor 56 = 2000
    Number of processor patches = 3
    Number of processor faces = 6230
    Number of boundary faces = 6230

Processor 25
    Number of cells = 94000
    Number of faces shared with processor 17 = 1880
    Number of faces shared with processor 24 = 2350
    Number of faces shared with processor 26 = 2350
    Number of faces shared with processor 57 = 2000
    Number of processor patches = 4
    Number of processor faces = 8580
    Number of boundary faces = 3880

Processor 26
    Number of cells = 93979
    Number of faces shared with processor 18 = 1880
    Number of faces shared with processor 25 = 2350
    Number of faces shared with processor 27 = 2343
    Number of faces shared with processor 58 = 2012
    Number of faces shared with processor 59 = 1
    Number of processor patches = 5
    Number of processor faces = 8586
    Number of boundary faces = 3874

Processor 27
    Number of cells = 92940
    Number of faces shared with processor 19 = 1880
    Number of faces shared with processor 26 = 2343
    Number of faces shared with processor 28 = 2303
    Number of faces shared with processor 59 = 2079
    Number of faces shared with processor 60 = 1
    Number of processor patches = 5
    Number of processor faces = 8606
    Number of boundary faces = 3840

Processor 28
    Number of cells = 92006
    Number of faces shared with processor 20 = 1843
    Number of faces shared with processor 27 = 2303
    Number of faces shared with processor 29 = 2300
    Number of faces shared with processor 60 = 2006
    Number of processor patches = 4
    Number of processor faces = 8452
    Number of boundary faces = 3840

Processor 29
    Number of cells = 92000
    Number of faces shared with processor 21 = 1840
    Number of faces shared with processor 28 = 2300
    Number of faces shared with processor 30 = 2300
    Number of faces shared with processor 61 = 2000
    Number of processor patches = 4
    Number of processor faces = 8440
    Number of boundary faces = 3840

Processor 30
    Number of cells = 92000
    Number of faces shared with processor 22 = 1840
    Number of faces shared with processor 29 = 2300
    Number of faces shared with processor 31 = 2300
    Number of faces shared with processor 62 = 2000
    Number of processor patches = 4
    Number of processor faces = 8440
    Number of boundary faces = 3840

Processor 31
    Number of cells = 92000
    Number of faces shared with processor 23 = 1840
    Number of faces shared with processor 30 = 2300
    Number of faces shared with processor 63 = 2000
    Number of processor patches = 3
    Number of processor faces = 6140
    Number of boundary faces = 6140

Processor 32
    Number of cells = 94000
    Number of faces shared with processor 0 = 2000
    Number of faces shared with processor 33 = 2350
    Number of faces shared with processor 40 = 1880
    Number of faces shared with processor 64 = 2000
    Number of processor patches = 4
    Number of processor faces = 8230
    Number of boundary faces = 4230

Processor 33
    Number of cells = 94000
    Number of faces shared with processor 1 = 2000
    Number of faces shared with processor 32 = 2350
    Number of faces shared with processor 34 = 2350
    Number of faces shared with processor 41 = 1880
    Number of faces shared with processor 65 = 2000
    Number of processor patches = 5
    Number of processor faces = 10580
    Number of boundary faces = 1880

Processor 34
    Number of cells = 94000
    Number of faces shared with processor 2 = 2000
    Number of faces shared with processor 33 = 2350
    Number of faces shared with processor 35 = 2350
    Number of faces shared with processor 42 = 1880
    Number of faces shared with processor 66 = 2000
    Number of processor patches = 5
    Number of processor faces = 10580
    Number of boundary faces = 1880

Processor 35
    Number of cells = 93994
    Number of faces shared with processor 3 = 2000
    Number of faces shared with processor 34 = 2350
    Number of faces shared with processor 36 = 2346
    Number of faces shared with processor 43 = 1876
    Number of faces shared with processor 67 = 2006
    Number of faces shared with processor 68 = 1
    Number of faces shared with processor 75 = 1
    Number of processor patches = 7
    Number of processor faces = 10580
    Number of boundary faces = 1880

Processor 36
    Number of cells = 93060
    Number of faces shared with processor 4 = 2000
    Number of faces shared with processor 35 = 2346
    Number of faces shared with processor 37 = 2306
    Number of faces shared with processor 44 = 1840
    Number of faces shared with processor 68 = 2079
    Number of faces shared with processor 69 = 1
    Number of processor patches = 6
    Number of processor faces = 10572
    Number of boundary faces = 1880

Processor 37
    Number of cells = 92021
    Number of faces shared with processor 5 = 2000
    Number of faces shared with processor 36 = 2306
    Number of faces shared with processor 38 = 2300
    Number of faces shared with processor 45 = 1840
    Number of faces shared with processor 69 = 2012
    Number of processor patches = 5
    Number of processor faces = 10458
    Number of boundary faces = 1846

Processor 38
    Number of cells = 92136
    Number of faces shared with processor 6 = 2032
    Number of faces shared with processor 37 = 2300
    Number of faces shared with processor 39 = 2316
    Number of faces shared with processor 46 = 1856
    Number of faces shared with processor 70 = 2000
    Number of processor patches = 5
    Number of processor faces = 10504
    Number of boundary faces = 1840

Processor 39
    Number of cells = 93472
    Number of faces shared with processor 6 = 2
    Number of faces shared with processor 7 = 2064
    Number of faces shared with processor 38 = 2316
    Number of faces shared with processor 47 = 1880
    Number of faces shared with processor 71 = 2000
    Number of processor patches = 5
    Number of processor faces = 8262
    Number of boundary faces = 4198

Processor 40
    Number of cells = 94000
    Number of faces shared with processor 8 = 2000
    Number of faces shared with processor 32 = 1880
    Number of faces shared with processor 41 = 2350
    Number of faces shared with processor 48 = 1880
    Number of faces shared with processor 72 = 2000
    Number of processor patches = 5
    Number of processor faces = 10110
    Number of boundary faces = 2350

Processor 41
    Number of cells = 94000
    Number of faces shared with processor 9 = 2000
    Number of faces shared with processor 33 = 1880
    Number of faces shared with processor 40 = 2350
    Number of faces shared with processor 42 = 2350
    Number of faces shared with processor 49 = 1880
    Number of faces shared with processor 73 = 2000
    Number of processor patches = 6
    Number of processor faces = 12460
    Number of boundary faces = 0

Processor 42
    Number of cells = 93909
    Number of faces shared with processor 10 = 2000
    Number of faces shared with processor 34 = 1880
    Number of faces shared with processor 41 = 2350
    Number of faces shared with processor 43 = 2336
    Number of faces shared with processor 50 = 1866
    Number of faces shared with processor 74 = 2026
    Number of faces shared with processor 75 = 1
    Number of faces shared with processor 82 = 1
    Number of processor patches = 8
    Number of processor faces = 12460
    Number of boundary faces = 0

Processor 43
    Number of cells = 92666
    Number of faces shared with processor 11 = 2000
    Number of faces shared with processor 35 = 1876
    Number of faces shared with processor 42 = 2336
    Number of faces shared with processor 44 = 2300
    Number of faces shared with processor 51 = 1840
    Number of faces shared with processor 75 = 2072
    Number of processor patches = 6
    Number of processor faces = 12424
    Number of boundary faces = 0

Processor 44
    Number of cells = 92000
    Number of faces shared with processor 12 = 2000
    Number of faces shared with processor 36 = 1840
    Number of faces shared with processor 43 = 2300
    Number of faces shared with processor 45 = 2300
    Number of faces shared with processor 52 = 1840
    Number of faces shared with processor 76 = 2000
    Number of processor patches = 6
    Number of processor faces = 12280
    Number of boundary faces = 0

Processor 45
    Number of cells = 92351
    Number of faces shared with processor 13 = 2052
    Number of faces shared with processor 37 = 1840
    Number of faces shared with processor 44 = 2300
    Number of faces shared with processor 46 = 2326
    Number of faces shared with processor 53 = 1866
    Number of faces shared with processor 77 = 2000
    Number of processor patches = 6
    Number of processor faces = 12384
    Number of boundary faces = 0

Processor 46
    Number of cells = 93724
    Number of faces shared with processor 6 = 1
    Number of faces shared with processor 13 = 1
    Number of faces shared with processor 14 = 2046
    Number of faces shared with processor 38 = 1856
    Number of faces shared with processor 45 = 2326
    Number of faces shared with processor 47 = 2350
    Number of faces shared with processor 54 = 1880
    Number of faces shared with processor 78 = 2000
    Number of processor patches = 8
    Number of processor faces = 12460
    Number of boundary faces = 0

Processor 47
    Number of cells = 94000
    Number of faces shared with processor 15 = 2000
    Number of faces shared with processor 39 = 1880
    Number of faces shared with processor 46 = 2350
    Number of faces shared with processor 55 = 1880
    Number of faces shared with processor 79 = 2000
    Number of processor patches = 5
    Number of processor faces = 10110
    Number of boundary faces = 2350

Processor 48
    Number of cells = 94000
    Number of faces shared with processor 16 = 2000
    Number of faces shared with processor 40 = 1880
    Number of faces shared with processor 49 = 2350
    Number of faces shared with processor 56 = 1880
    Number of faces shared with processor 80 = 2000
    Number of processor patches = 5
    Number of processor faces = 10110
    Number of boundary faces = 2350

Processor 49
    Number of cells = 93724
    Number of faces shared with processor 17 = 2000
    Number of faces shared with processor 41 = 1880
    Number of faces shared with processor 48 = 2350
    Number of faces shared with processor 50 = 2326
    Number of faces shared with processor 57 = 1856
    Number of faces shared with processor 81 = 2046
    Number of faces shared with processor 82 = 1
    Number of faces shared with processor 89 = 1
    Number of processor patches = 8
    Number of processor faces = 12460
    Number of boundary faces = 0

Processor 50
    Number of cells = 92351
    Number of faces shared with processor 18 = 2000
    Number of faces shared with processor 42 = 1866
    Number of faces shared with processor 49 = 2326
    Number of faces shared with processor 51 = 2300
    Number of faces shared with processor 58 = 1840
    Number of faces shared with processor 82 = 2052
    Number of processor patches = 6
    Number of processor faces = 12384
    Number of boundary faces = 0

Processor 51
    Number of cells = 92000
    Number of faces shared with processor 19 = 2000
    Number of faces shared with processor 43 = 1840
    Number of faces shared with processor 50 = 2300
    Number of faces shared with processor 52 = 2300
    Number of faces shared with processor 59 = 1840
    Number of faces shared with processor 83 = 2000
    Number of processor patches = 6
    Number of processor faces = 12280
    Number of boundary faces = 0

Processor 52
    Number of cells = 92666
    Number of faces shared with processor 20 = 2072
    Number of faces shared with processor 44 = 1840
    Number of faces shared with processor 51 = 2300
    Number of faces shared with processor 53 = 2336
    Number of faces shared with processor 60 = 1876
    Number of faces shared with processor 84 = 2000
    Number of processor patches = 6
    Number of processor faces = 12424
    Number of boundary faces = 0

Processor 53
    Number of cells = 93909
    Number of faces shared with processor 13 = 1
    Number of faces shared with processor 20 = 1
    Number of faces shared with processor 21 = 2026
    Number of faces shared with processor 45 = 1866
    Number of faces shared with processor 52 = 2336
    Number of faces shared with processor 54 = 2350
    Number of faces shared with processor 61 = 1880
    Number of faces shared with processor 85 = 2000
    Number of processor patches = 8
    Number of processor faces = 12460
    Number of boundary faces = 0

Processor 54
    Number of cells = 94000
    Number of faces shared with processor 22 = 2000
    Number of faces shared with processor 46 = 1880
    Number of faces shared with processor 53 = 2350
    Number of faces shared with processor 55 = 2350
    Number of faces shared with processor 62 = 1880
    Number of faces shared with processor 86 = 2000
    Number of processor patches = 6
    Number of processor faces = 12460
    Number of boundary faces = 0

Processor 55
    Number of cells = 94000
    Number of faces shared with processor 23 = 2000
    Number of faces shared with processor 47 = 1880
    Number of faces shared with processor 54 = 2350
    Number of faces shared with processor 63 = 1880
    Number of faces shared with processor 87 = 2000
    Number of processor patches = 5
    Number of processor faces = 10110
    Number of boundary faces = 2350

Processor 56
    Number of cells = 93472
    Number of faces shared with processor 24 = 2000
    Number of faces shared with processor 48 = 1880
    Number of faces shared with processor 57 = 2317
    Number of faces shared with processor 88 = 2064
    Number of faces shared with processor 89 = 1
    Number of processor patches = 5
    Number of processor faces = 8262
    Number of boundary faces = 4198

Processor 57
    Number of cells = 92137
    Number of faces shared with processor 25 = 2000
    Number of faces shared with processor 49 = 1856
    Number of faces shared with processor 56 = 2317
    Number of faces shared with processor 58 = 2300
    Number of faces shared with processor 89 = 2033
    Number of processor patches = 5
    Number of processor faces = 10506
    Number of boundary faces = 1840

Processor 58
    Number of cells = 92021
    Number of faces shared with processor 26 = 2012
    Number of faces shared with processor 50 = 1840
    Number of faces shared with processor 57 = 2300
    Number of faces shared with processor 59 = 2306
    Number of faces shared with processor 90 = 2000
    Number of processor patches = 5
    Number of processor faces = 10458
    Number of boundary faces = 1846

Processor 59
    Number of cells = 93060
    Number of faces shared with processor 26 = 1
    Number of faces shared with processor 27 = 2079
    Number of faces shared with processor 51 = 1840
    Number of faces shared with processor 58 = 2306
    Number of faces shared with processor 60 = 2346
    Number of faces shared with processor 91 = 2000
    Number of processor patches = 6
    Number of processor faces = 10572
    Number of boundary faces = 1880

Processor 60
    Number of cells = 93994
    Number of faces shared with processor 20 = 1
    Number of faces shared with processor 27 = 1
    Number of faces shared with processor 28 = 2006
    Number of faces shared with processor 52 = 1876
    Number of faces shared with processor 59 = 2346
    Number of faces shared with processor 61 = 2350
    Number of faces shared with processor 92 = 2000
    Number of processor patches = 7
    Number of processor faces = 10580
    Number of boundary faces = 1880

Processor 61
    Number of cells = 94000
    Number of faces shared with processor 29 = 2000
    Number of faces shared with processor 53 = 1880
    Number of faces shared with processor 60 = 2350
    Number of faces shared with processor 62 = 2350
    Number of faces shared with processor 93 = 2000
    Number of processor patches = 5
    Number of processor faces = 10580
    Number of boundary faces = 1880

Processor 62
    Number of cells = 94000
    Number of faces shared with processor 30 = 2000
    Number of faces shared with processor 54 = 1880
    Number of faces shared with processor 61 = 2350
    Number of faces shared with processor 63 = 2350
    Number of faces shared with processor 94 = 2000
    Number of processor patches = 5
    Number of processor faces = 10580
    Number of boundary faces = 1880

Processor 63
    Number of cells = 94000
    Number of faces shared with processor 31 = 2000
    Number of faces shared with processor 55 = 1880
    Number of faces shared with processor 62 = 2350
    Number of faces shared with processor 95 = 2000
    Number of processor patches = 4
    Number of processor faces = 8230
    Number of boundary faces = 4230

Processor 64
    Number of cells = 92000
    Number of faces shared with processor 32 = 2000
    Number of faces shared with processor 65 = 2300
    Number of faces shared with processor 72 = 1840
    Number of processor patches = 3
    Number of processor faces = 6140
    Number of boundary faces = 6140

Processor 65
    Number of cells = 92000
    Number of faces shared with processor 33 = 2000
    Number of faces shared with processor 64 = 2300
    Number of faces shared with processor 66 = 2300
    Number of faces shared with processor 73 = 1840
    Number of processor patches = 4
    Number of processor faces = 8440
    Number of boundary faces = 3840

Processor 66
    Number of cells = 92000
    Number of faces shared with processor 34 = 2000
    Number of faces shared with processor 65 = 2300
    Number of faces shared with processor 67 = 2300
    Number of faces shared with processor 74 = 1840
    Number of processor patches = 4
    Number of processor faces = 8440
    Number of boundary faces = 3840

Processor 67
    Number of cells = 92006
    Number of faces shared with processor 35 = 2006
    Number of faces shared with processor 66 = 2300
    Number of faces shared with processor 68 = 2303
    Number of faces shared with processor 75 = 1843
    Number of processor patches = 4
    Number of processor faces = 8452
    Number of boundary faces = 3840

Processor 68
    Number of cells = 92940
    Number of faces shared with processor 35 = 1
    Number of faces shared with processor 36 = 2079
    Number of faces shared with processor 67 = 2303
    Number of faces shared with processor 69 = 2343
    Number of faces shared with processor 76 = 1880
    Number of processor patches = 5
    Number of processor faces = 8606
    Number of boundary faces = 3840

Processor 69
    Number of cells = 93979
    Number of faces shared with processor 36 = 1
    Number of faces shared with processor 37 = 2012
    Number of faces shared with processor 68 = 2343
    Number of faces shared with processor 70 = 2350
    Number of faces shared with processor 77 = 1880
    Number of processor patches = 5
    Number of processor faces = 8586
    Number of boundary faces = 3874

Processor 70
    Number of cells = 94000
    Number of faces shared with processor 38 = 2000
    Number of faces shared with processor 69 = 2350
    Number of faces shared with processor 71 = 2350
    Number of faces shared with processor 78 = 1880
    Number of processor patches = 4
    Number of processor faces = 8580
    Number of boundary faces = 3880

Processor 71
    Number of cells = 94000
    Number of faces shared with processor 39 = 2000
    Number of faces shared with processor 70 = 2350
    Number of faces shared with processor 79 = 1880
    Number of processor patches = 3
    Number of processor faces = 6230
    Number of boundary faces = 6230

Processor 72
    Number of cells = 92000
    Number of faces shared with processor 40 = 2000
    Number of faces shared with processor 64 = 1840
    Number of faces shared with processor 73 = 2300
    Number of faces shared with processor 80 = 1840
    Number of processor patches = 4
    Number of processor faces = 7980
    Number of boundary faces = 4300

Processor 73
    Number of cells = 92000
    Number of faces shared with processor 41 = 2000
    Number of faces shared with processor 65 = 1840
    Number of faces shared with processor 72 = 2300
    Number of faces shared with processor 74 = 2300
    Number of faces shared with processor 81 = 1840
    Number of processor patches = 5
    Number of processor faces = 10280
    Number of boundary faces = 2000

Processor 74
    Number of cells = 92091
    Number of faces shared with processor 42 = 2026
    Number of faces shared with processor 66 = 1840
    Number of faces shared with processor 73 = 2300
    Number of faces shared with processor 75 = 2313
    Number of faces shared with processor 82 = 1853
    Number of processor patches = 5
    Number of processor faces = 10332
    Number of boundary faces = 2000

Processor 75
    Number of cells = 93334
    Number of faces shared with processor 35 = 1
    Number of faces shared with processor 42 = 1
    Number of faces shared with processor 43 = 2072
    Number of faces shared with processor 67 = 1843
    Number of faces shared with processor 74 = 2313
    Number of faces shared with processor 76 = 2350
    Number of faces shared with processor 83 = 1880
    Number of processor patches = 7
    Number of processor faces = 10460
    Number of boundary faces = 2000

Processor 76
    Number of cells = 94000
    Number of faces shared with processor 44 = 2000
    Number of faces shared with processor 68 = 1880
    Number of faces shared with processor 75 = 2350
    Number of faces shared with processor 77 = 2350
    Number of faces shared with processor 84 = 1880
    Number of processor patches = 5
    Number of processor faces = 10460
    Number of boundary faces = 2000

Processor 77
    Number of cells = 94000
    Number of faces shared with processor 45 = 2000
    Number of faces shared with processor 69 = 1880
    Number of faces shared with processor 76 = 2350
    Number of faces shared with processor 78 = 2350
    Number of faces shared with processor 85 = 1880
    Number of processor patches = 5
    Number of processor faces = 10460
    Number of boundary faces = 2000

Processor 78
    Number of cells = 94000
    Number of faces shared with processor 46 = 2000
    Number of faces shared with processor 70 = 1880
    Number of faces shared with processor 77 = 2350
    Number of faces shared with processor 79 = 2350
    Number of faces shared with processor 86 = 1880
    Number of processor patches = 5
    Number of processor faces = 10460
    Number of boundary faces = 2000

Processor 79
    Number of cells = 94000
    Number of faces shared with processor 47 = 2000
    Number of faces shared with processor 71 = 1880
    Number of faces shared with processor 78 = 2350
    Number of faces shared with processor 87 = 1880
    Number of processor patches = 4
    Number of processor faces = 8110
    Number of boundary faces = 4350

Processor 80
    Number of cells = 92000
    Number of faces shared with processor 48 = 2000
    Number of faces shared with processor 72 = 1840
    Number of faces shared with processor 81 = 2300
    Number of faces shared with processor 88 = 1840
    Number of processor patches = 4
    Number of processor faces = 7980
    Number of boundary faces = 4300

Processor 81
    Number of cells = 92276
    Number of faces shared with processor 49 = 2046
    Number of faces shared with processor 73 = 1840
    Number of faces shared with processor 80 = 2300
    Number of faces shared with processor 82 = 2323
    Number of faces shared with processor 89 = 1863
    Number of processor patches = 5
    Number of processor faces = 10372
    Number of boundary faces = 2000

Processor 82
    Number of cells = 93649
    Number of faces shared with processor 42 = 1
    Number of faces shared with processor 49 = 1
    Number of faces shared with processor 50 = 2052
    Number of faces shared with processor 74 = 1853
    Number of faces shared with processor 81 = 2323
    Number of faces shared with processor 83 = 2350
    Number of faces shared with processor 90 = 1880
    Number of processor patches = 7
    Number of processor faces = 10460
    Number of boundary faces = 2000

Processor 83
    Number of cells = 94000
    Number of faces shared with processor 51 = 2000
    Number of faces shared with processor 75 = 1880
    Number of faces shared with processor 82 = 2350
    Number of faces shared with processor 84 = 2350
    Number of faces shared with processor 91 = 1880
    Number of processor patches = 5
    Number of processor faces = 10460
    Number of boundary faces = 2000

Processor 84
    Number of cells = 94000
    Number of faces shared with processor 52 = 2000
    Number of faces shared with processor 76 = 1880
    Number of faces shared with processor 83 = 2350
    Number of faces shared with processor 85 = 2350
    Number of faces shared with processor 92 = 1880
    Number of processor patches = 5
    Number of processor faces = 10460
    Number of boundary faces = 2000

Processor 85
    Number of cells = 94000
    Number of faces shared with processor 53 = 2000
    Number of faces shared with processor 77 = 1880
    Number of faces shared with processor 84 = 2350
    Number of faces shared with processor 86 = 2350
    Number of faces shared with processor 93 = 1880
    Number of processor patches = 5
    Number of processor faces = 10460
    Number of boundary faces = 2000

Processor 86
    Number of cells = 94000
    Number of faces shared with processor 54 = 2000
    Number of faces shared with processor 78 = 1880
    Number of faces shared with processor 85 = 2350
    Number of faces shared with processor 87 = 2350
    Number of faces shared with processor 94 = 1880
    Number of processor patches = 5
    Number of processor faces = 10460
    Number of boundary faces = 2000

Processor 87
    Number of cells = 94000
    Number of faces shared with processor 55 = 2000
    Number of faces shared with processor 79 = 1880
    Number of faces shared with processor 86 = 2350
    Number of faces shared with processor 95 = 1880
    Number of processor patches = 4
    Number of processor faces = 8110
    Number of boundary faces = 4350

Processor 88
    Number of cells = 92528
    Number of faces shared with processor 56 = 2064
    Number of faces shared with processor 80 = 1840
    Number of faces shared with processor 89 = 2332
    Number of processor patches = 3
    Number of processor faces = 6236
    Number of boundary faces = 6172

Processor 89
    Number of cells = 93863
    Number of faces shared with processor 49 = 1
    Number of faces shared with processor 56 = 1
    Number of faces shared with processor 57 = 2033
    Number of faces shared with processor 81 = 1863
    Number of faces shared with processor 88 = 2332
    Number of faces shared with processor 90 = 2350
    Number of processor patches = 6
    Number of processor faces = 8580
    Number of boundary faces = 3880

Processor 90
    Number of cells = 94000
    Number of faces shared with processor 58 = 2000
    Number of faces shared with processor 82 = 1880
    Number of faces shared with processor 89 = 2350
    Number of faces shared with processor 91 = 2350
    Number of processor patches = 4
    Number of processor faces = 8580
    Number of boundary faces = 3880

Processor 91
    Number of cells = 94000
    Number of faces shared with processor 59 = 2000
    Number of faces shared with processor 83 = 1880
    Number of faces shared with processor 90 = 2350
    Number of faces shared with processor 92 = 2350
    Number of processor patches = 4
    Number of processor faces = 8580
    Number of boundary faces = 3880

Processor 92
    Number of cells = 94000
    Number of faces shared with processor 60 = 2000
    Number of faces shared with processor 84 = 1880
    Number of faces shared with processor 91 = 2350
    Number of faces shared with processor 93 = 2350
    Number of processor patches = 4
    Number of processor faces = 8580
    Number of boundary faces = 3880

Processor 93
    Number of cells = 94000
    Number of faces shared with processor 61 = 2000
    Number of faces shared with processor 85 = 1880
    Number of faces shared with processor 92 = 2350
    Number of faces shared with processor 94 = 2350
    Number of processor patches = 4
    Number of processor faces = 8580
    Number of boundary faces = 3880

Processor 94
    Number of cells = 94000
    Number of faces shared with processor 62 = 2000
    Number of faces shared with processor 86 = 1880
    Number of faces shared with processor 93 = 2350
    Number of faces shared with processor 95 = 2350
    Number of processor patches = 4
    Number of processor faces = 8580
    Number of boundary faces = 3880

Processor 95
    Number of cells = 94000
    Number of faces shared with processor 63 = 2000
    Number of faces shared with processor 87 = 1880
    Number of faces shared with processor 94 = 2350
    Number of processor patches = 3
    Number of processor faces = 6230
    Number of boundary faces = 6230

Number of processor faces = 459179
Max number of cells = 94000 (0.714286% above average 93333.3)
Max number of processor patches = 8 (62.7119% above average 4.91667)
Max number of faces between processors = 12460 (30.2499% above average 9566.23)

Time = 0

Processor 0: field transfer
Processor 1: field transfer
Processor 2: field transfer
Processor 3: field transfer
Processor 4: field transfer
Processor 5: field transfer
Processor 6: field transfer
Processor 7: field transfer
Processor 8: field transfer
Processor 9: field transfer
Processor 10: field transfer
Processor 11: field transfer
Processor 12: field transfer
Processor 13: field transfer
Processor 14: field transfer
Processor 15: field transfer
Processor 16: field transfer
Processor 17: field transfer
Processor 18: field transfer
Processor 19: field transfer
Processor 20: field transfer
Processor 21: field transfer
Processor 22: field transfer
Processor 23: field transfer
Processor 24: field transfer
Processor 25: field transfer
Processor 26: field transfer
Processor 27: field transfer
Processor 28: field transfer
Processor 29: field transfer
Processor 30: field transfer
Processor 31: field transfer
Processor 32: field transfer
Processor 33: field transfer
Processor 34: field transfer
Processor 35: field transfer
Processor 36: field transfer
Processor 37: field transfer
Processor 38: field transfer
Processor 39: field transfer
Processor 40: field transfer
Processor 41: field transfer
Processor 42: field transfer
Processor 43: field transfer
Processor 44: field transfer
Processor 45: field transfer
Processor 46: field transfer
Processor 47: field transfer
Processor 48: field transfer
Processor 49: field transfer
Processor 50: field transfer
Processor 51: field transfer
Processor 52: field transfer
Processor 53: field transfer
Processor 54: field transfer
Processor 55: field transfer
Processor 56: field transfer
Processor 57: field transfer
Processor 58: field transfer
Processor 59: field transfer
Processor 60: field transfer
Processor 61: field transfer
Processor 62: field transfer
Processor 63: field transfer
Processor 64: field transfer
Processor 65: field transfer
Processor 66: field transfer
Processor 67: field transfer
Processor 68: field transfer
Processor 69: field transfer
Processor 70: field transfer
Processor 71: field transfer
Processor 72: field transfer
Processor 73: field transfer
Processor 74: field transfer
Processor 75: field transfer
Processor 76: field transfer
Processor 77: field transfer
Processor 78: field transfer
Processor 79: field transfer
Processor 80: field transfer
Processor 81: field transfer
Processor 82: field transfer
Processor 83: field transfer
Processor 84: field transfer
Processor 85: field transfer
Processor 86: field transfer
Processor 87: field transfer
Processor 88: field transfer
Processor 89: field transfer
Processor 90: field transfer
Processor 91: field transfer
Processor 92: field transfer
Processor 93: field transfer
Processor 94: field transfer
Processor 95: field transfer

End

/*---------------------------------------------------------------------------*\
  =========                 |
  \\      /  F ield         | OpenFOAM: The Open Source CFD Toolbox
   \\    /   O peration     | Website:  https://openfoam.org
    \\  /    A nd           | Version:  8
     \\/     M anipulation  |
\*---------------------------------------------------------------------------*/
Build  : 8
Exec   : simpleDarcyFoam -parallel
Date   : Nov 19 2022
Time   : 07:19:42
Host   : "compute014.int.augusta.nottingham.ac.uk"
PID    : 12630
I/O    : uncollated
Case   : /gpfs01/home/pmxep5/PGSFlowTransport/tutorials/RESULTS/Herten/varMecDisp/varMecDisp1e-2alpha
nProcs : 96
Slaves : 
95
(
"compute014.int.augusta.nottingham.ac.uk.12631"
"compute014.int.augusta.nottingham.ac.uk.12632"
"compute014.int.augusta.nottingham.ac.uk.12633"
"compute014.int.augusta.nottingham.ac.uk.12634"
"compute014.int.augusta.nottingham.ac.uk.12635"
"compute014.int.augusta.nottingham.ac.uk.12636"
"compute014.int.augusta.nottingham.ac.uk.12637"
"compute014.int.augusta.nottingham.ac.uk.12638"
"compute014.int.augusta.nottingham.ac.uk.12639"
"compute014.int.augusta.nottingham.ac.uk.12640"
"compute014.int.augusta.nottingham.ac.uk.12641"
"compute015.int.augusta.nottingham.ac.uk.262196"
"compute015.int.augusta.nottingham.ac.uk.262197"
"compute015.int.augusta.nottingham.ac.uk.262198"
"compute015.int.augusta.nottingham.ac.uk.262199"
"compute015.int.augusta.nottingham.ac.uk.262200"
"compute015.int.augusta.nottingham.ac.uk.262201"
"compute015.int.augusta.nottingham.ac.uk.262202"
"compute015.int.augusta.nottingham.ac.uk.262203"
"compute015.int.augusta.nottingham.ac.uk.262204"
"compute015.int.augusta.nottingham.ac.uk.262205"
"compute015.int.augusta.nottingham.ac.uk.262206"
"compute015.int.augusta.nottingham.ac.uk.262207"
"compute018.int.augusta.nottingham.ac.uk.137423"
"compute018.int.augusta.nottingham.ac.uk.137424"
"compute018.int.augusta.nottingham.ac.uk.137425"
"compute018.int.augusta.nottingham.ac.uk.137426"
"compute018.int.augusta.nottingham.ac.uk.137427"
"compute018.int.augusta.nottingham.ac.uk.137428"
"compute018.int.augusta.nottingham.ac.uk.137429"
"compute018.int.augusta.nottingham.ac.uk.137430"
"compute018.int.augusta.nottingham.ac.uk.137431"
"compute018.int.augusta.nottingham.ac.uk.137432"
"compute018.int.augusta.nottingham.ac.uk.137433"
"compute018.int.augusta.nottingham.ac.uk.137434"
"compute019.int.augusta.nottingham.ac.uk.252733"
"compute019.int.augusta.nottingham.ac.uk.252734"
"compute019.int.augusta.nottingham.ac.uk.252735"
"compute019.int.augusta.nottingham.ac.uk.252736"
"compute019.int.augusta.nottingham.ac.uk.252737"
"compute019.int.augusta.nottingham.ac.uk.252738"
"compute019.int.augusta.nottingham.ac.uk.252739"
"compute019.int.augusta.nottingham.ac.uk.252740"
"compute019.int.augusta.nottingham.ac.uk.252741"
"compute019.int.augusta.nottingham.ac.uk.252742"
"compute019.int.augusta.nottingham.ac.uk.252743"
"compute019.int.augusta.nottingham.ac.uk.252744"
"compute043.int.augusta.nottingham.ac.uk.77998"
"compute043.int.augusta.nottingham.ac.uk.77999"
"compute043.int.augusta.nottingham.ac.uk.78000"
"compute043.int.augusta.nottingham.ac.uk.78001"
"compute043.int.augusta.nottingham.ac.uk.78002"
"compute043.int.augusta.nottingham.ac.uk.78003"
"compute043.int.augusta.nottingham.ac.uk.78004"
"compute043.int.augusta.nottingham.ac.uk.78005"
"compute043.int.augusta.nottingham.ac.uk.78006"
"compute043.int.augusta.nottingham.ac.uk.78007"
"compute043.int.augusta.nottingham.ac.uk.78008"
"compute043.int.augusta.nottingham.ac.uk.78009"
"compute044.int.augusta.nottingham.ac.uk.104764"
"compute044.int.augusta.nottingham.ac.uk.104765"
"compute044.int.augusta.nottingham.ac.uk.104766"
"compute044.int.augusta.nottingham.ac.uk.104767"
"compute044.int.augusta.nottingham.ac.uk.104768"
"compute044.int.augusta.nottingham.ac.uk.104769"
"compute044.int.augusta.nottingham.ac.uk.104770"
"compute044.int.augusta.nottingham.ac.uk.104771"
"compute044.int.augusta.nottingham.ac.uk.104772"
"compute044.int.augusta.nottingham.ac.uk.104773"
"compute044.int.augusta.nottingham.ac.uk.104774"
"compute044.int.augusta.nottingham.ac.uk.104775"
"compute045.int.augusta.nottingham.ac.uk.187085"
"compute045.int.augusta.nottingham.ac.uk.187086"
"compute045.int.augusta.nottingham.ac.uk.187087"
"compute045.int.augusta.nottingham.ac.uk.187088"
"compute045.int.augusta.nottingham.ac.uk.187089"
"compute045.int.augusta.nottingham.ac.uk.187090"
"compute045.int.augusta.nottingham.ac.uk.187091"
"compute045.int.augusta.nottingham.ac.uk.187092"
"compute045.int.augusta.nottingham.ac.uk.187093"
"compute045.int.augusta.nottingham.ac.uk.187094"
"compute045.int.augusta.nottingham.ac.uk.187095"
"compute045.int.augusta.nottingham.ac.uk.187096"
"compute046.int.augusta.nottingham.ac.uk.191583"
"compute046.int.augusta.nottingham.ac.uk.191584"
"compute046.int.augusta.nottingham.ac.uk.191585"
"compute046.int.augusta.nottingham.ac.uk.191586"
"compute046.int.augusta.nottingham.ac.uk.191587"
"compute046.int.augusta.nottingham.ac.uk.191588"
"compute046.int.augusta.nottingham.ac.uk.191589"
"compute046.int.augusta.nottingham.ac.uk.191590"
"compute046.int.augusta.nottingham.ac.uk.191591"
"compute046.int.augusta.nottingham.ac.uk.191592"
"compute046.int.augusta.nottingham.ac.uk.191593"
"compute046.int.augusta.nottingham.ac.uk.191594"
)

Pstream initialized with:
    floatTransfer      : 0
    nProcsSimpleSum    : 0
    commsType          : nonBlocking
    polling iterations : 0
sigFpe : Enabling floating point exception trapping (FOAM_SIGFPE).
fileModificationChecking : Monitoring run-time modified files using timeStampMaster (fileModificationSkew 10)
allowSystemOperations : Allowing user-supplied system call operations

// * * * * * * * * * * * * * * * * * * * * * * * * * * * * * * * * * * * * * //
Create time

Create mesh for time = 0


SIMPLE: Convergence criteria found
        p: tolerance 1e-10
        c: tolerance 1e-10


Reading g

Reading field p

Reading transportProperties

Reading field K

Reading/calculating face flux field phi

No finite volume options present

Starting time loop

Time = 100

DICPBiCGStab:  Solving for p, Initial residual = 1, Final residual = 9.6644e-07, No Iterations 501
Mean velocity  = (0.000273321 1.48838e-07 1.13263e-06)

ExecutionTime = 5.43 s  ClockTime = 5 s

Time = 200

DICPBiCGStab:  Solving for p, Initial residual = 5.12367e-07, Final residual = 4.40975e-13, No Iterations 403
Mean velocity  = (0.000273324 1.5024e-07 1.13147e-06)

ExecutionTime = 8.76 s  ClockTime = 9 s

Time = 300

DICPBiCGStab:  Solving for p, Initial residual = 5.0836e-13, Final residual = 4.52373e-16, No Iterations 247
Mean velocity  = (0.000273324 1.5024e-07 1.13147e-06)

ExecutionTime = 10.91 s  ClockTime = 11 s


SIMPLE solution converged in 300 iterations

End

Finalising parallel run
/*---------------------------------------------------------------------------*\
  =========                 |
  \\      /  F ield         | OpenFOAM: The Open Source CFD Toolbox
   \\    /   O peration     | Website:  https://openfoam.org
    \\  /    A nd           | Version:  8
     \\/     M anipulation  |
\*---------------------------------------------------------------------------*/
Build  : 8
Exec   : macroScalarTransport -parallel
Date   : Nov 19 2022
Time   : 07:21:50
Host   : "compute014.int.augusta.nottingham.ac.uk"
PID    : 13667
I/O    : uncollated
Case   : /gpfs01/home/pmxep5/PGSFlowTransport/tutorials/RESULTS/Herten/varMecDisp/varMecDisp1e-2alpha
nProcs : 96
Slaves : 
95
(
"compute014.int.augusta.nottingham.ac.uk.13668"
"compute014.int.augusta.nottingham.ac.uk.13669"
"compute014.int.augusta.nottingham.ac.uk.13670"
"compute014.int.augusta.nottingham.ac.uk.13671"
"compute014.int.augusta.nottingham.ac.uk.13672"
"compute014.int.augusta.nottingham.ac.uk.13673"
"compute014.int.augusta.nottingham.ac.uk.13674"
"compute014.int.augusta.nottingham.ac.uk.13675"
"compute014.int.augusta.nottingham.ac.uk.13676"
"compute014.int.augusta.nottingham.ac.uk.13677"
"compute014.int.augusta.nottingham.ac.uk.13678"
"compute015.int.augusta.nottingham.ac.uk.262439"
"compute015.int.augusta.nottingham.ac.uk.262440"
"compute015.int.augusta.nottingham.ac.uk.262441"
"compute015.int.augusta.nottingham.ac.uk.262442"
"compute015.int.augusta.nottingham.ac.uk.262443"
"compute015.int.augusta.nottingham.ac.uk.262444"
"compute015.int.augusta.nottingham.ac.uk.262445"
"compute015.int.augusta.nottingham.ac.uk.262446"
"compute015.int.augusta.nottingham.ac.uk.262447"
"compute015.int.augusta.nottingham.ac.uk.262448"
"compute015.int.augusta.nottingham.ac.uk.262449"
"compute015.int.augusta.nottingham.ac.uk.262450"
"compute018.int.augusta.nottingham.ac.uk.137585"
"compute018.int.augusta.nottingham.ac.uk.137586"
"compute018.int.augusta.nottingham.ac.uk.137587"
"compute018.int.augusta.nottingham.ac.uk.137588"
"compute018.int.augusta.nottingham.ac.uk.137589"
"compute018.int.augusta.nottingham.ac.uk.137590"
"compute018.int.augusta.nottingham.ac.uk.137591"
"compute018.int.augusta.nottingham.ac.uk.137592"
"compute018.int.augusta.nottingham.ac.uk.137593"
"compute018.int.augusta.nottingham.ac.uk.137594"
"compute018.int.augusta.nottingham.ac.uk.137595"
"compute018.int.augusta.nottingham.ac.uk.137596"
"compute019.int.augusta.nottingham.ac.uk.252896"
"compute019.int.augusta.nottingham.ac.uk.252897"
"compute019.int.augusta.nottingham.ac.uk.252898"
"compute019.int.augusta.nottingham.ac.uk.252899"
"compute019.int.augusta.nottingham.ac.uk.252900"
"compute019.int.augusta.nottingham.ac.uk.252901"
"compute019.int.augusta.nottingham.ac.uk.252902"
"compute019.int.augusta.nottingham.ac.uk.252903"
"compute019.int.augusta.nottingham.ac.uk.252904"
"compute019.int.augusta.nottingham.ac.uk.252905"
"compute019.int.augusta.nottingham.ac.uk.252906"
"compute019.int.augusta.nottingham.ac.uk.252907"
"compute043.int.augusta.nottingham.ac.uk.78328"
"compute043.int.augusta.nottingham.ac.uk.78329"
"compute043.int.augusta.nottingham.ac.uk.78330"
"compute043.int.augusta.nottingham.ac.uk.78331"
"compute043.int.augusta.nottingham.ac.uk.78332"
"compute043.int.augusta.nottingham.ac.uk.78333"
"compute043.int.augusta.nottingham.ac.uk.78334"
"compute043.int.augusta.nottingham.ac.uk.78335"
"compute043.int.augusta.nottingham.ac.uk.78336"
"compute043.int.augusta.nottingham.ac.uk.78337"
"compute043.int.augusta.nottingham.ac.uk.78338"
"compute043.int.augusta.nottingham.ac.uk.78339"
"compute044.int.augusta.nottingham.ac.uk.105051"
"compute044.int.augusta.nottingham.ac.uk.105052"
"compute044.int.augusta.nottingham.ac.uk.105053"
"compute044.int.augusta.nottingham.ac.uk.105054"
"compute044.int.augusta.nottingham.ac.uk.105055"
"compute044.int.augusta.nottingham.ac.uk.105056"
"compute044.int.augusta.nottingham.ac.uk.105057"
"compute044.int.augusta.nottingham.ac.uk.105058"
"compute044.int.augusta.nottingham.ac.uk.105059"
"compute044.int.augusta.nottingham.ac.uk.105060"
"compute044.int.augusta.nottingham.ac.uk.105061"
"compute044.int.augusta.nottingham.ac.uk.105062"
"compute045.int.augusta.nottingham.ac.uk.187317"
"compute045.int.augusta.nottingham.ac.uk.187318"
"compute045.int.augusta.nottingham.ac.uk.187319"
"compute045.int.augusta.nottingham.ac.uk.187320"
"compute045.int.augusta.nottingham.ac.uk.187321"
"compute045.int.augusta.nottingham.ac.uk.187322"
"compute045.int.augusta.nottingham.ac.uk.187323"
"compute045.int.augusta.nottingham.ac.uk.187324"
"compute045.int.augusta.nottingham.ac.uk.187325"
"compute045.int.augusta.nottingham.ac.uk.187326"
"compute045.int.augusta.nottingham.ac.uk.187327"
"compute045.int.augusta.nottingham.ac.uk.187328"
"compute046.int.augusta.nottingham.ac.uk.191933"
"compute046.int.augusta.nottingham.ac.uk.191934"
"compute046.int.augusta.nottingham.ac.uk.191935"
"compute046.int.augusta.nottingham.ac.uk.191936"
"compute046.int.augusta.nottingham.ac.uk.191937"
"compute046.int.augusta.nottingham.ac.uk.191938"
"compute046.int.augusta.nottingham.ac.uk.191939"
"compute046.int.augusta.nottingham.ac.uk.191940"
"compute046.int.augusta.nottingham.ac.uk.191941"
"compute046.int.augusta.nottingham.ac.uk.191942"
"compute046.int.augusta.nottingham.ac.uk.191943"
"compute046.int.augusta.nottingham.ac.uk.191944"
)

Pstream initialized with:
    floatTransfer      : 0
    nProcsSimpleSum    : 0
    commsType          : nonBlocking
    polling iterations : 0
sigFpe : Enabling floating point exception trapping (FOAM_SIGFPE).
fileModificationChecking : Monitoring run-time modified files using timeStampMaster (fileModificationSkew 10)
allowSystemOperations : Allowing user-supplied system call operations

// * * * * * * * * * * * * * * * * * * * * * * * * * * * * * * * * * * * * * //
Create time

Create mesh for time = 0


SIMPLE: Convergence criteria found
        p: tolerance 1e-10
        c: tolerance 1e-10

Reading field c

Reading field U

Reading transportProperties

Reading diffusivity Dm

Reading outlet name

Reading porosity phi

Reading mechanical disp coeff alpha

Reading mechanical disp coeff alphaT

Reading controlDict

Reading/calculating face flux field q

No finite volume options present

Calculating scalar transport

Courant Number mean: 0.583838 max: 8.06066
Mean vel = (0.000273324 1.5024e-07 1.13147e-06)

Adaptive time = 9.92457
DILUPBiCGStab:  Solving for c, Initial residual = 1, Final residual = 4.02386e-11, No Iterations 3
Total mass = 0.689919
Flux out = 0

Adaptive time = 19.8491
DILUPBiCGStab:  Solving for c, Initial residual = 0.200305, Final residual = 3.79173e-11, No Iterations 2
Total mass = 1.36979
Flux out = 3.87334e-189

Adaptive time = 29.7737
DILUPBiCGStab:  Solving for c, Initial residual = 0.11026, Final residual = 2.00358e-11, No Iterations 2
Total mass = 2.03897
Flux out = 5.21657e-187

Adaptive time = 39.6983
DILUPBiCGStab:  Solving for c, Initial residual = 0.0758436, Final residual = 1.32493e-11, No Iterations 2
Total mass = 2.69937
Flux out = 3.42272e-185

Adaptive time = 49.6229
DILUPBiCGStab:  Solving for c, Initial residual = 0.0578038, Final residual = 9.86474e-12, No Iterations 2
Total mass = 3.35317
Flux out = 1.49078e-183

Adaptive time = 59.5474
DILUPBiCGStab:  Solving for c, Initial residual = 0.0467409, Final residual = 8.05521e-12, No Iterations 2
Total mass = 4.00216
Flux out = 4.8778e-182

Adaptive time = 69.472
DILUPBiCGStab:  Solving for c, Initial residual = 0.039277, Final residual = 7.49422e-12, No Iterations 2
Total mass = 4.64765
Flux out = 1.28142e-180

Adaptive time = 79.3966
DILUPBiCGStab:  Solving for c, Initial residual = 0.0339028, Final residual = 7.7602e-12, No Iterations 2
Total mass = 5.2906
Flux out = 2.81759e-179

Adaptive time = 89.3212
DILUPBiCGStab:  Solving for c, Initial residual = 0.0298454, Final residual = 8.09014e-12, No Iterations 2
Total mass = 5.93165
Flux out = 5.33532e-178

Adaptive time = 99.2457
DILUPBiCGStab:  Solving for c, Initial residual = 0.0266727, Final residual = 8.08716e-12, No Iterations 2
Total mass = 6.57128
Flux out = 8.88318e-177

Adaptive time = 109.17
DILUPBiCGStab:  Solving for c, Initial residual = 0.0241216, Final residual = 7.76762e-12, No Iterations 2
Total mass = 7.20981
Flux out = 1.32125e-175

Adaptive time = 119.095
DILUPBiCGStab:  Solving for c, Initial residual = 0.0220246, Final residual = 7.25322e-12, No Iterations 2
Total mass = 7.84748
Flux out = 1.77763e-174

Adaptive time = 129.019
DILUPBiCGStab:  Solving for c, Initial residual = 0.0202694, Final residual = 6.63404e-12, No Iterations 2
Total mass = 8.48447
Flux out = 2.18536e-173

Adaptive time = 138.944
DILUPBiCGStab:  Solving for c, Initial residual = 0.0187783, Final residual = 5.97395e-12, No Iterations 2
Total mass = 9.12091
Flux out = 2.4755e-172

Adaptive time = 148.869
DILUPBiCGStab:  Solving for c, Initial residual = 0.0174955, Final residual = 5.32627e-12, No Iterations 2
Total mass = 9.75691
Flux out = 2.602e-171

Adaptive time = 158.793
DILUPBiCGStab:  Solving for c, Initial residual = 0.0163797, Final residual = 4.71674e-12, No Iterations 2
Total mass = 10.3925
Flux out = 2.55305e-170

Adaptive time = 168.718
DILUPBiCGStab:  Solving for c, Initial residual = 0.0154002, Final residual = 4.15834e-12, No Iterations 2
Total mass = 11.0279
Flux out = 2.35053e-169

Adaptive time = 178.642
DILUPBiCGStab:  Solving for c, Initial residual = 0.0145334, Final residual = 3.66177e-12, No Iterations 2
Total mass = 11.6629
Flux out = 2.03981e-168

Adaptive time = 188.567
DILUPBiCGStab:  Solving for c, Initial residual = 0.0137607, Final residual = 3.23169e-12, No Iterations 2
Total mass = 12.2978
Flux out = 1.67517e-167

Adaptive time = 198.491
DILUPBiCGStab:  Solving for c, Initial residual = 0.0130673, Final residual = 2.86512e-12, No Iterations 2
Total mass = 12.9324
Flux out = 1.30652e-166

Adaptive time = 208.416
DILUPBiCGStab:  Solving for c, Initial residual = 0.0124418, Final residual = 2.55818e-12, No Iterations 2
Total mass = 13.567
Flux out = 9.70822e-166

Adaptive time = 218.341
DILUPBiCGStab:  Solving for c, Initial residual = 0.0118746, Final residual = 2.3068e-12, No Iterations 2
Total mass = 14.2013
Flux out = 6.89247e-165

Adaptive time = 228.265
DILUPBiCGStab:  Solving for c, Initial residual = 0.011358, Final residual = 2.10692e-12, No Iterations 2
Total mass = 14.8356
Flux out = 4.68764e-164

Adaptive time = 238.19
DILUPBiCGStab:  Solving for c, Initial residual = 0.0108851, Final residual = 1.9446e-12, No Iterations 2
Total mass = 15.4697
Flux out = 3.06137e-163

Adaptive time = 248.114
DILUPBiCGStab:  Solving for c, Initial residual = 0.0104507, Final residual = 1.81173e-12, No Iterations 2
Total mass = 16.1037
Flux out = 1.92404e-162

Adaptive time = 258.039
DILUPBiCGStab:  Solving for c, Initial residual = 0.0100505, Final residual = 1.70076e-12, No Iterations 2
Total mass = 16.7377
Flux out = 1.1661e-161

Adaptive time = 267.963
DILUPBiCGStab:  Solving for c, Initial residual = 0.00968046, Final residual = 1.60839e-12, No Iterations 2
Total mass = 17.3716
Flux out = 6.82819e-161

Adaptive time = 277.888
DILUPBiCGStab:  Solving for c, Initial residual = 0.00933716, Final residual = 1.54275e-12, No Iterations 2
Total mass = 18.0054
Flux out = 3.86988e-160

Adaptive time = 287.813
DILUPBiCGStab:  Solving for c, Initial residual = 0.00901795, Final residual = 1.61959e-12, No Iterations 2
Total mass = 18.6392
Flux out = 2.12639e-159

Adaptive time = 297.737
DILUPBiCGStab:  Solving for c, Initial residual = 0.00872025, Final residual = 1.76464e-12, No Iterations 2
Total mass = 19.2729
Flux out = 1.13458e-158

Adaptive time = 307.662
DILUPBiCGStab:  Solving for c, Initial residual = 0.00844208, Final residual = 1.98293e-12, No Iterations 2
Total mass = 19.9066
Flux out = 5.88764e-158

Adaptive time = 317.586
DILUPBiCGStab:  Solving for c, Initial residual = 0.00818154, Final residual = 2.26801e-12, No Iterations 2
Total mass = 20.5402
Flux out = 2.97576e-157

Adaptive time = 327.511
DILUPBiCGStab:  Solving for c, Initial residual = 0.00793692, Final residual = 2.60523e-12, No Iterations 2
Total mass = 21.1738
Flux out = 1.46698e-156

Adaptive time = 337.435
DILUPBiCGStab:  Solving for c, Initial residual = 0.0077069, Final residual = 2.98521e-12, No Iterations 2
Total mass = 21.8073
Flux out = 7.06356e-156

Adaptive time = 347.36
DILUPBiCGStab:  Solving for c, Initial residual = 0.00749013, Final residual = 3.40093e-12, No Iterations 2
Total mass = 22.4408
Flux out = 3.32647e-155

Adaptive time = 357.285
DILUPBiCGStab:  Solving for c, Initial residual = 0.00728548, Final residual = 3.84756e-12, No Iterations 2
Total mass = 23.0743
Flux out = 1.53422e-154

Adaptive time = 367.209
DILUPBiCGStab:  Solving for c, Initial residual = 0.00709209, Final residual = 4.29962e-12, No Iterations 2
Total mass = 23.7078
Flux out = 6.93914e-154

Adaptive time = 377.134
DILUPBiCGStab:  Solving for c, Initial residual = 0.00690894, Final residual = 4.74806e-12, No Iterations 2
Total mass = 24.3412
Flux out = 3.08184e-153

Adaptive time = 387.058
DILUPBiCGStab:  Solving for c, Initial residual = 0.00673525, Final residual = 5.19536e-12, No Iterations 2
Total mass = 24.9746
Flux out = 1.34575e-152

Adaptive time = 396.983
DILUPBiCGStab:  Solving for c, Initial residual = 0.00657037, Final residual = 5.65056e-12, No Iterations 2
Total mass = 25.608
Flux out = 5.78539e-152

Adaptive time = 406.908
DILUPBiCGStab:  Solving for c, Initial residual = 0.00641358, Final residual = 6.13418e-12, No Iterations 2
Total mass = 26.2414
Flux out = 2.4517e-151

Adaptive time = 416.832
DILUPBiCGStab:  Solving for c, Initial residual = 0.00626428, Final residual = 6.68232e-12, No Iterations 2
Total mass = 26.8747
Flux out = 1.02546e-150

Adaptive time = 426.757
DILUPBiCGStab:  Solving for c, Initial residual = 0.00612205, Final residual = 7.32837e-12, No Iterations 2
Total mass = 27.5081
Flux out = 4.23858e-150

Adaptive time = 436.681
DILUPBiCGStab:  Solving for c, Initial residual = 0.00598631, Final residual = 8.11816e-12, No Iterations 2
Total mass = 28.1414
Flux out = 1.7334e-149

Adaptive time = 446.606
DILUPBiCGStab:  Solving for c, Initial residual = 0.00585661, Final residual = 9.10641e-12, No Iterations 2
Total mass = 28.7747
Flux out = 7.02193e-149

Adaptive time = 456.53
DILUPBiCGStab:  Solving for c, Initial residual = 0.00573263, Final residual = 1.03392e-11, No Iterations 2
Total mass = 29.408
Flux out = 2.82075e-148

Adaptive time = 466.455
DILUPBiCGStab:  Solving for c, Initial residual = 0.00561393, Final residual = 1.18482e-11, No Iterations 2
Total mass = 30.0412
Flux out = 1.12479e-147

Adaptive time = 476.38
DILUPBiCGStab:  Solving for c, Initial residual = 0.0055002, Final residual = 1.36269e-11, No Iterations 2
Total mass = 30.6745
Flux out = 4.45631e-147

Adaptive time = 486.304
DILUPBiCGStab:  Solving for c, Initial residual = 0.00539118, Final residual = 1.56055e-11, No Iterations 2
Total mass = 31.3077
Flux out = 1.75569e-146

Adaptive time = 496.229
DILUPBiCGStab:  Solving for c, Initial residual = 0.00528652, Final residual = 1.76425e-11, No Iterations 2
Total mass = 31.941
Flux out = 6.88348e-146

Adaptive time = 506.153
DILUPBiCGStab:  Solving for c, Initial residual = 0.00518597, Final residual = 1.95645e-11, No Iterations 2
Total mass = 32.5742
Flux out = 2.68741e-145

Adaptive time = 516.078
DILUPBiCGStab:  Solving for c, Initial residual = 0.00508936, Final residual = 2.12622e-11, No Iterations 2
Total mass = 33.2074
Flux out = 1.04534e-144

Adaptive time = 526.002
DILUPBiCGStab:  Solving for c, Initial residual = 0.0049964, Final residual = 2.27607e-11, No Iterations 2
Total mass = 33.8406
Flux out = 4.053e-144

Adaptive time = 535.927
DILUPBiCGStab:  Solving for c, Initial residual = 0.00490687, Final residual = 2.43017e-11, No Iterations 2
Total mass = 34.4738
Flux out = 1.56693e-143

Adaptive time = 545.852
DILUPBiCGStab:  Solving for c, Initial residual = 0.00482065, Final residual = 2.65485e-11, No Iterations 2
Total mass = 35.107
Flux out = 6.0424e-143

Adaptive time = 555.776
DILUPBiCGStab:  Solving for c, Initial residual = 0.00473751, Final residual = 3.02816e-11, No Iterations 2
Total mass = 35.7402
Flux out = 2.32466e-142

Adaptive time = 565.701
DILUPBiCGStab:  Solving for c, Initial residual = 0.00465728, Final residual = 3.51355e-11, No Iterations 2
Total mass = 36.3734
Flux out = 8.92455e-142

Adaptive time = 575.625
DILUPBiCGStab:  Solving for c, Initial residual = 0.00457987, Final residual = 4.13818e-11, No Iterations 2
Total mass = 37.0065
Flux out = 3.41952e-141

Adaptive time = 585.55
DILUPBiCGStab:  Solving for c, Initial residual = 0.00450508, Final residual = 4.92754e-11, No Iterations 2
Total mass = 37.6397
Flux out = 1.30785e-140

Adaptive time = 595.474
DILUPBiCGStab:  Solving for c, Initial residual = 0.00443277, Final residual = 5.89032e-11, No Iterations 2
Total mass = 38.2728
Flux out = 4.99369e-140

Adaptive time = 605.399
DILUPBiCGStab:  Solving for c, Initial residual = 0.00436288, Final residual = 7.00878e-11, No Iterations 2
Total mass = 38.906
Flux out = 1.90373e-139

Adaptive time = 615.324
DILUPBiCGStab:  Solving for c, Initial residual = 0.00429525, Final residual = 8.25751e-11, No Iterations 2
Total mass = 39.5391
Flux out = 7.24699e-139

Adaptive time = 625.248
DILUPBiCGStab:  Solving for c, Initial residual = 0.00422976, Final residual = 9.56063e-11, No Iterations 2
Total mass = 40.1723
Flux out = 2.75499e-138

Adaptive time = 635.173
DILUPBiCGStab:  Solving for c, Initial residual = 0.00416634, Final residual = 3.20008e-11, No Iterations 3
Total mass = 40.8054
Flux out = 1.04601e-137

Adaptive time = 645.097
DILUPBiCGStab:  Solving for c, Initial residual = 0.00410488, Final residual = 2.76126e-11, No Iterations 3
Total mass = 41.4385
Flux out = 3.96677e-137

Adaptive time = 655.022
DILUPBiCGStab:  Solving for c, Initial residual = 0.00404528, Final residual = 2.58267e-11, No Iterations 3
Total mass = 42.0717
Flux out = 1.50266e-136

Adaptive time = 664.946
DILUPBiCGStab:  Solving for c, Initial residual = 0.00398748, Final residual = 2.47354e-11, No Iterations 3
Total mass = 42.7048
Flux out = 5.68638e-136

Adaptive time = 674.871
DILUPBiCGStab:  Solving for c, Initial residual = 0.00393139, Final residual = 2.37882e-11, No Iterations 3
Total mass = 43.3379
Flux out = 2.14974e-135

Adaptive time = 684.796
DILUPBiCGStab:  Solving for c, Initial residual = 0.00387691, Final residual = 2.28063e-11, No Iterations 3
Total mass = 43.971
Flux out = 8.11963e-135

Adaptive time = 694.72
DILUPBiCGStab:  Solving for c, Initial residual = 0.003824, Final residual = 2.1794e-11, No Iterations 3
Total mass = 44.6041
Flux out = 3.0641e-134

Adaptive time = 704.645
DILUPBiCGStab:  Solving for c, Initial residual = 0.0037726, Final residual = 2.0797e-11, No Iterations 3
Total mass = 45.2372
Flux out = 1.15532e-133

Adaptive time = 714.569
DILUPBiCGStab:  Solving for c, Initial residual = 0.00372262, Final residual = 1.98579e-11, No Iterations 3
Total mass = 45.8703
Flux out = 4.35256e-133

Adaptive time = 724.494
DILUPBiCGStab:  Solving for c, Initial residual = 0.00367402, Final residual = 1.89939e-11, No Iterations 3
Total mass = 46.5034
Flux out = 1.63847e-132

Adaptive time = 734.418
DILUPBiCGStab:  Solving for c, Initial residual = 0.00362675, Final residual = 1.8221e-11, No Iterations 3
Total mass = 47.1365
Flux out = 6.16302e-132

Adaptive time = 744.343
DILUPBiCGStab:  Solving for c, Initial residual = 0.00358072, Final residual = 1.75466e-11, No Iterations 3
Total mass = 47.7696
Flux out = 2.31637e-131

Adaptive time = 754.268
DILUPBiCGStab:  Solving for c, Initial residual = 0.00353591, Final residual = 1.69782e-11, No Iterations 3
Total mass = 48.4027
Flux out = 8.69929e-131

Adaptive time = 764.192
DILUPBiCGStab:  Solving for c, Initial residual = 0.00349229, Final residual = 1.65251e-11, No Iterations 3
Total mass = 49.0357
Flux out = 3.26449e-130

Adaptive time = 774.117
DILUPBiCGStab:  Solving for c, Initial residual = 0.00344978, Final residual = 1.6195e-11, No Iterations 3
Total mass = 49.6688
Flux out = 1.22404e-129

Adaptive time = 784.041
DILUPBiCGStab:  Solving for c, Initial residual = 0.00340835, Final residual = 1.59805e-11, No Iterations 3
Total mass = 50.3019
Flux out = 4.58573e-129

Adaptive time = 793.966
DILUPBiCGStab:  Solving for c, Initial residual = 0.00336796, Final residual = 1.58694e-11, No Iterations 3
Total mass = 50.935
Flux out = 1.71648e-128

Adaptive time = 803.89
DILUPBiCGStab:  Solving for c, Initial residual = 0.00332857, Final residual = 1.58549e-11, No Iterations 3
Total mass = 51.568
Flux out = 6.41893e-128

Adaptive time = 813.815
DILUPBiCGStab:  Solving for c, Initial residual = 0.00329013, Final residual = 1.59385e-11, No Iterations 3
Total mass = 52.2011
Flux out = 2.398e-127

Adaptive time = 823.74
DILUPBiCGStab:  Solving for c, Initial residual = 0.00325264, Final residual = 1.61274e-11, No Iterations 3
Total mass = 52.8342
Flux out = 8.94878e-127

Adaptive time = 833.664
DILUPBiCGStab:  Solving for c, Initial residual = 0.00321605, Final residual = 1.64323e-11, No Iterations 3
Total mass = 53.4672
Flux out = 3.33551e-126

Adaptive time = 843.589
DILUPBiCGStab:  Solving for c, Initial residual = 0.00318031, Final residual = 1.68791e-11, No Iterations 3
Total mass = 54.1003
Flux out = 1.24164e-125

Adaptive time = 853.513
DILUPBiCGStab:  Solving for c, Initial residual = 0.00314541, Final residual = 1.74798e-11, No Iterations 3
Total mass = 54.7334
Flux out = 4.6154e-125

Adaptive time = 863.438
DILUPBiCGStab:  Solving for c, Initial residual = 0.00311133, Final residual = 1.82248e-11, No Iterations 3
Total mass = 55.3664
Flux out = 1.71293e-124

Adaptive time = 873.362
DILUPBiCGStab:  Solving for c, Initial residual = 0.00307801, Final residual = 1.91133e-11, No Iterations 3
Total mass = 55.9995
Flux out = 6.3463e-124

Adaptive time = 883.287
DILUPBiCGStab:  Solving for c, Initial residual = 0.00304544, Final residual = 2.01301e-11, No Iterations 3
Total mass = 56.6325
Flux out = 2.34681e-123

Adaptive time = 893.212
DILUPBiCGStab:  Solving for c, Initial residual = 0.0030136, Final residual = 2.13605e-11, No Iterations 3
Total mass = 57.2656
Flux out = 8.66032e-123

Adaptive time = 903.136
DILUPBiCGStab:  Solving for c, Initial residual = 0.00298247, Final residual = 2.31319e-11, No Iterations 3
Total mass = 57.8986
Flux out = 3.18867e-122

Adaptive time = 913.061
DILUPBiCGStab:  Solving for c, Initial residual = 0.00295201, Final residual = 2.49189e-11, No Iterations 3
Total mass = 58.5317
Flux out = 1.17117e-121

Adaptive time = 922.985
DILUPBiCGStab:  Solving for c, Initial residual = 0.00292222, Final residual = 2.66413e-11, No Iterations 3
Total mass = 59.1647
Flux out = 4.29021e-121

Adaptive time = 932.91
DILUPBiCGStab:  Solving for c, Initial residual = 0.00289305, Final residual = 2.82609e-11, No Iterations 3
Total mass = 59.7978
Flux out = 1.56711e-120

Adaptive time = 942.834
DILUPBiCGStab:  Solving for c, Initial residual = 0.0028645, Final residual = 2.97494e-11, No Iterations 3
Total mass = 60.4308
Flux out = 5.70689e-120

Adaptive time = 952.759
DILUPBiCGStab:  Solving for c, Initial residual = 0.00283656, Final residual = 3.10883e-11, No Iterations 3
Total mass = 61.0639
Flux out = 2.07152e-119

Adaptive time = 962.684
DILUPBiCGStab:  Solving for c, Initial residual = 0.00280919, Final residual = 3.22647e-11, No Iterations 3
Total mass = 61.6969
Flux out = 7.49356e-119

Adaptive time = 972.608
DILUPBiCGStab:  Solving for c, Initial residual = 0.00278238, Final residual = 3.32726e-11, No Iterations 3
Total mass = 62.3299
Flux out = 2.70092e-118

Adaptive time = 982.533
DILUPBiCGStab:  Solving for c, Initial residual = 0.00275612, Final residual = 3.41115e-11, No Iterations 3
Total mass = 62.963
Flux out = 9.69798e-118

Adaptive time = 992.457
DILUPBiCGStab:  Solving for c, Initial residual = 0.00273039, Final residual = 3.4785e-11, No Iterations 3
Total mass = 63.596
Flux out = 3.46834e-117

Adaptive time = 1002.38
DILUPBiCGStab:  Solving for c, Initial residual = 0.00270516, Final residual = 3.52978e-11, No Iterations 3
Total mass = 64.2291
Flux out = 1.23527e-116

Adaptive time = 1012.31
DILUPBiCGStab:  Solving for c, Initial residual = 0.00268043, Final residual = 3.56538e-11, No Iterations 3
Total mass = 64.8621
Flux out = 4.3806e-116

Adaptive time = 1022.23
DILUPBiCGStab:  Solving for c, Initial residual = 0.00265618, Final residual = 3.58631e-11, No Iterations 3
Total mass = 65.4951
Flux out = 1.54658e-115

Adaptive time = 1032.16
DILUPBiCGStab:  Solving for c, Initial residual = 0.0026324, Final residual = 3.59406e-11, No Iterations 3
Total mass = 66.1282
Flux out = 5.43522e-115

Adaptive time = 1042.08
DILUPBiCGStab:  Solving for c, Initial residual = 0.00260908, Final residual = 3.5908e-11, No Iterations 3
Total mass = 66.7612
Flux out = 1.90114e-114

Adaptive time = 1052
DILUPBiCGStab:  Solving for c, Initial residual = 0.0025862, Final residual = 3.57982e-11, No Iterations 3
Total mass = 67.3942
Flux out = 6.61781e-114

Adaptive time = 1061.93
DILUPBiCGStab:  Solving for c, Initial residual = 0.00256376, Final residual = 3.56479e-11, No Iterations 3
Total mass = 68.0272
Flux out = 2.29228e-113

Adaptive time = 1071.85
DILUPBiCGStab:  Solving for c, Initial residual = 0.00254172, Final residual = 3.54895e-11, No Iterations 3
Total mass = 68.6603
Flux out = 7.90012e-113

Adaptive time = 1081.78
DILUPBiCGStab:  Solving for c, Initial residual = 0.00252009, Final residual = 3.53496e-11, No Iterations 3
Total mass = 69.2933
Flux out = 2.70878e-112

Adaptive time = 1091.7
DILUPBiCGStab:  Solving for c, Initial residual = 0.00249886, Final residual = 3.54893e-11, No Iterations 3
Total mass = 69.9263
Flux out = 9.23958e-112

Adaptive time = 1101.63
DILUPBiCGStab:  Solving for c, Initial residual = 0.00247802, Final residual = 3.5774e-11, No Iterations 3
Total mass = 70.5594
Flux out = 3.13501e-111

Adaptive time = 1111.55
DILUPBiCGStab:  Solving for c, Initial residual = 0.00245755, Final residual = 3.60858e-11, No Iterations 3
Total mass = 71.1924
Flux out = 1.05805e-110

Adaptive time = 1121.48
DILUPBiCGStab:  Solving for c, Initial residual = 0.00243744, Final residual = 3.63941e-11, No Iterations 3
Total mass = 71.8254
Flux out = 3.55166e-110

Adaptive time = 1131.4
DILUPBiCGStab:  Solving for c, Initial residual = 0.00241769, Final residual = 3.66859e-11, No Iterations 3
Total mass = 72.4584
Flux out = 1.18575e-109

Adaptive time = 1141.33
DILUPBiCGStab:  Solving for c, Initial residual = 0.00239828, Final residual = 3.69567e-11, No Iterations 3
Total mass = 73.0914
Flux out = 3.93706e-109

Adaptive time = 1151.25
DILUPBiCGStab:  Solving for c, Initial residual = 0.00237921, Final residual = 3.71951e-11, No Iterations 3
Total mass = 73.7245
Flux out = 1.30003e-108

Adaptive time = 1161.18
DILUPBiCGStab:  Solving for c, Initial residual = 0.00236047, Final residual = 3.73694e-11, No Iterations 3
Total mass = 74.3575
Flux out = 4.269e-108

Adaptive time = 1171.1
DILUPBiCGStab:  Solving for c, Initial residual = 0.00234205, Final residual = 3.74424e-11, No Iterations 3
Total mass = 74.9905
Flux out = 1.39405e-107

Adaptive time = 1181.02
DILUPBiCGStab:  Solving for c, Initial residual = 0.00232394, Final residual = 3.73876e-11, No Iterations 3
Total mass = 75.6235
Flux out = 4.52693e-107

Adaptive time = 1190.95
DILUPBiCGStab:  Solving for c, Initial residual = 0.00230614, Final residual = 3.71825e-11, No Iterations 3
Total mass = 76.2565
Flux out = 1.46182e-106

Adaptive time = 1200.87
[...]
[31] 
[31] 
[31]     From function macroScalarTransport
[31]     in file macroScalarTransport.C
[0] 
[0] --> FOAM FATAL ERROR:  at line 118.
[31] 
FOAM parallel run exiting
[31] 

[0] Concentration under the threshold
[0] 
[0] 
[0]     From function macroScalarTransport
[0]     in file macroScalarTransport.C at line 118.
[0] 
FOAM parallel run exiting
[0] 
[66] [64] 
[66] 
[66] --> FOAM FATAL ERROR: 
[66] Concentration under the threshold
[66] [25] 
[64] 
[64] --> FOAM FATAL ERROR: 
[64] Concentration under the threshold
[64] 
[64] 

[25] 

[66] 
[66]     From function macroScalarTransport
[66]     in file macroScalarTransport.C at line [64]     From function macroScalarTransport
[64]     in file macroScalarTransport.C at line 118.
[64] 
FOAM parallel run exiting
[64] 
[25] --> FOAM FATAL ERROR: 
[25] Concentration under the threshold
[25] 
[25] 
[25]     From function macroScalarTransport
[25]     in file macroScalarTransport.C118.
[66] 
FOAM parallel run exiting
[66] 
 at line 118.
[25] 
FOAM parallel run exiting
[25] 
[26] [92] 
[92] 

[26] [92] --> FOAM FATAL ERROR: 
[92] Concentration under the threshold
[92] 
[92] 
[92]     From function macroScalarTransport
[92]     in file macroScalarTransport.C at line 
[26] --> FOAM FATAL ERROR: 
[26] Concentration under the threshold
[26] 
[26] 
[26]     From function macroScalarTransport
[26]     in file macroScalarTransport.C at line 118.[11] 
[26] 
FOAM parallel run exiting
[26] 
118.
[92] 
FOAM parallel run exiting
[92] 

[11] 
[11] --> FOAM FATAL ERROR: 
[11] Concentration under the threshold
[11] 
[11] 
[11]     From function macroScalarTransport
[11]     in file macroScalarTransport.C at line 118.
[11] 
FOAM parallel run exiting
[11] 
[91] 
[91] 
[91] --> FOAM FATAL ERROR: 
[91] Concentration under the threshold
[91] 
[91] 
[91]     From function macroScalarTransport
[91]     in file macroScalarTransport.C at line 118.
[91] 
FOAM parallel run exiting
[91] 
[28] 
[28] 
[28] --> FOAM FATAL ERROR: 
[28] Concentration under the threshold
[28] 
[28] 
[28]     From function macroScalarTransport
[28]     in file macroScalarTransport.C at line 118.
[28] 
FOAM parallel run exiting
[28] 
[30] 
[30] 
[30] --> FOAM FATAL ERROR: 
[30] Concentration under the threshold
[30] 
[30] 
[30]     From function macroScalarTransport
[30]     in file macroScalarTransport.C at line 118.
[30] 
FOAM parallel run exiting
[30] 
[85] 
[85] 
[85] --> FOAM FATAL ERROR: 
[85] Concentration under the threshold
[85] 
[85] 
[85]     From function macroScalarTransport
[85]     in file [27] macroScalarTransport.C at line 118.
[85] 
FOAM parallel run exiting
[85] 

[27] [89] 
[27] --> FOAM FATAL ERROR: 
[27] Concentration under the threshold
[27] 
[27] 
[27]     From function macroScalarTransport
[27]     in file macroScalarTransport.C at line 118.
[27] 
FOAM parallel run exiting
[27] 
[15] 
[15] 
[15] --> FOAM FATAL ERROR: 
[15] Concentration under the threshold
[15] 
[15] 
[15]     From function macroScalarTransport
[15]     in file macroScalarTransport.C at line 118.
[15] 
FOAM parallel run exiting
[15] 
[17] 
[17] 
[17] --> FOAM FATAL ERROR: 
[17] Concentration under the threshold
[17] 
[17] 
[17]     From function macroScalarTransport
[17]     in file macroScalarTransport.C at line 118.
[17] 
FOAM parallel run exiting
[17] 

[89] 
[19] 
[19] 
[19] --> FOAM FATAL ERROR: 
[19] Concentration under the threshold
[19] 
[19] 
[19]     From function macroScalarTransport
[19]     in file macroScalarTransport.C at line 118.
[19] 
FOAM parallel run exiting
[19] 
[89] --> FOAM FATAL ERROR: 
[89] Concentration under the threshold
[89] 
[89] 
[89]     From function macroScalarTransport
[89]     in file macroScalarTransport.C at line 118.
[89] 
FOAM parallel run exiting
[89] 
[88] 
[88] 
[88] --> FOAM FATAL ERROR: 
[88] Concentration under the threshold
[88] 
[88] 
[88]     From function macroScalarTransport
[88]     in file macroScalarTransport.C at line 118.
[88] 
FOAM parallel run exiting
[88] 
[33] 
[33] 
[33] --> FOAM FATAL ERROR: 
[33] Concentration under the threshold
[33] 
[33] 
[33]     From function macroScalarTransport
[33]     in file macroScalarTransport.C at line 118.
[33] 
FOAM parallel run exiting
[33] 
[58] 
[58] 
[58] --> FOAM FATAL ERROR: 
[58] Concentration under the threshold
[58] 
[58] 
[58]     From function macroScalarTransport
[58]     in file macroScalarTransport.C at line 118.
[58] 
FOAM parallel run exiting
[58] 
[56] 
[56] 
[56] --> FOAM FATAL ERROR: [35] 
[35] 
[35] --> FOAM FATAL ERROR: 
[35] Concentration under the threshold
[35] 

[56] Concentration under the threshold
[56] 
[56] 
[56]     From function macroScalarTransport
[56]     in file macroScalarTransport.C at line 118.
[56] 
FOAM parallel run exiting
[56] 
[35] 
[35]     From function macroScalarTransport
[35]     in file macroScalarTransport.C at line 118.
[35] 
FOAM parallel run exiting
[35] 
[34] 
[34] 
[34] --> FOAM FATAL ERROR: 
[34] Concentration under the threshold
[34] 
[34] 
[34]     From function macroScalarTransport
[34]     in file macroScalarTransport.C at line 118.
[34] 
FOAM parallel run exiting
[34] 
[32] 
[32] 
[32] [57] --> FOAM FATAL ERROR: 
[32] Concentration under the threshold
[32] 
[32] 
[32]     From function macroScalarTransport
[32]     in file macroScalarTransport.C at line 118.
[32] 
[57] 
[57] --> FOAM FATAL ERROR: 
[57] Concentration under the threshold
[57] 
[57] 
[57]     From function macroScalarTransport
[57] 
FOAM parallel run exiting
[32] 
    in file macroScalarTransport.C at line 118.
[57] 
FOAM parallel run exiting
[57] 
[13] 
[13] 
[13] --> FOAM FATAL ERROR: 
[13] Concentration under the threshold
[13] 
[13] 
[13]     From function macroScalarTransport
[13]     in file macroScalarTransport.C at line 118.
[13] 
FOAM parallel run exiting
[13] 
[76] 
[76] 
[76] --> FOAM FATAL ERROR: 
[76] Concentration under the threshold
[76] 
[76] 
[76]     From function macroScalarTransport
[76]     in file macroScalarTransport.C at line 118.
[76] 
FOAM parallel run exiting
[76] 
[80] 
[80] 
[80] --> FOAM FATAL ERROR: 
[80] Concentration under the threshold
[80] 
[80] 
[80]     From function macroScalarTransport
[80]     in file macroScalarTransport.C at line 118.
[80] 
FOAM parallel run exiting
[80] 
[49] 
[49] 
[49] --> FOAM FATAL ERROR: 
[49] Concentration under the threshold
[49] 
[72] 
[72] [49] 
[49]     From function macroScalarTransport
[49]     in file macroScalarTransport.C at line 118.
[49] 
FOAM parallel run exiting
[49] 

[72] --> FOAM FATAL ERROR: 
[72] Concentration under the threshold
[72] 
[72] 
[72]     From function macroScalarTransport
[72]     in file macroScalarTransport.C at line 118.
[72] 
FOAM parallel run exiting
[72] 
[50] 
[50] 
[50] --> FOAM FATAL ERROR: 
[50] Concentration under the threshold
[50] 
[50] 
[50]     From function macroScalarTransport
[50]     in file macroScalarTransport.C at line 118.
[50] 
FOAM parallel run exiting
[50] 
[90] 
[90] 
[90] --> FOAM FATAL ERROR: 
[90] Concentration under the threshold
[90] 
[90] 
[90]     From function macroScalarTransport
[90]     in file macroScalarTransport.C at line 118.
[90] 
FOAM parallel run exiting
[90] 
[5] 
[5] 
[5] --> FOAM FATAL ERROR: 
[5] Concentration under the threshold
[5] 
[5] 
[5]     From function macroScalarTransport
[5]     in file macroScalarTransport.C at line 118.
[5] 
FOAM parallel run exiting
[5] 
[59] 
[59] 
[59] --> FOAM FATAL ERROR: 
[59] Concentration under the threshold
[59] 
[59] 
[59]     From function macroScalarTransport
[59]     in file macroScalarTransport.C at line 118.
[59] 
FOAM parallel run exiting
[59] 
[84] 
[84] 
[84] --> FOAM FATAL ERROR: 
[84] Concentration under the threshold
[84] 
[84] 
[84]     From function macroScalarTransport
[84]     in file macroScalarTransport.C at line 118.
[53] [84] 
FOAM parallel run exiting
[84] 
[51] 
[53] 
[53] --> FOAM FATAL ERROR: 
[53] Concentration under the threshold
[53] 
[53] 
[53]     From function macroScalarTransport
[53]     in file macroScalarTransport.C at line 118.
[53] 
FOAM parallel run exiting
[53] 

[51] 
[51] --> FOAM FATAL ERROR: 
[51] Concentration under the threshold
[51] 
[51] 
[51]     From function macroScalarTransport
[51]     in file macroScalarTransport.C at line 118.
[51] 
FOAM parallel run exiting
[51] 
[62] 
[62] 
[62] --> FOAM FATAL ERROR: 
[62] Concentration under the threshold
[62] 
[62] 
[62]     From function macroScalarTransport
[62]     in file macroScalarTransport.C at line 118.
[62] 
FOAM parallel run exiting
[62] 
[16] [41] 
[41] 
[41] --> FOAM FATAL ERROR: 
[41] Concentration under the threshold
[41] 
[41] 
[41]     From function macroScalarTransport
[41]     in file macroScalarTransport.C at line [43] 
[43] 
[43] --> FOAM FATAL ERROR: 
[43] 
[16] 
[16] --> FOAM FATAL ERROR: 
[16] Concentration under the threshold
[16] 
[16] 
[16]     From function macroScalarTransport
118.
[41] 
FOAM parallel run exiting
[41] 
Concentration under the threshold
[43] 
[43] 
[43]     From function macroScalarTransport
[43]     in file macroScalarTransport.C at line 118.
[43] 
FOAM parallel run exiting
[43] 
[16]     in file macroScalarTransport.C at line 118.
[16] 
FOAM parallel run exiting
[16] 
[40] 
[40] 
[40] --> FOAM FATAL ERROR: 
[40] Concentration under the threshold
[40] 
[40] 
[40]     From function macroScalarTransport
[40]     in file macroScalarTransport.C at line 118.
[40] 
FOAM parallel run exiting
[40] 
[46] 
[46] 
[46] --> FOAM FATAL ERROR: 
[46] Concentration under the threshold
[46] 
[39] [46] 
[46]     From function macroScalarTransport
[46]     in file macroScalarTransport.C at line 118.
[46] 
FOAM parallel run exiting
[46] 
[74] 
[74] 
[74] --> FOAM FATAL ERROR: 
[74] Concentration under the threshold
[74] 
[74] 
[74]     From function macroScalarTransport
[74]     in file macroScalarTransport.C at line 118.
[74] 
FOAM parallel run exiting
[74] 

[39] 
[39] --> FOAM FATAL ERROR: 
[39] Concentration under the threshold
[39] 
[39] 
[39]     From function macroScalarTransport
[39]     in file macroScalarTransport.C at line [42] 
[42] 
[42] --> FOAM FATAL ERROR: 
[42] Concentration under the threshold
[42] 
[42] 
[42]     From function macroScalarTransport
[42]     in file macroScalarTransport.C at line 118.
[42] 
FOAM parallel run exiting
[42] 
118.
[39] 
FOAM parallel run exiting
[39] 
[45] 
[45] 
[45] --> FOAM FATAL ERROR: 
[20] [45] Concentration under the threshold
[45] 
[45] 
[45]     From function macroScalarTransport
[45]     in file macroScalarTransport.C at line 118.
[45] 
FOAM parallel run exiting

[20] 
[20] --> FOAM FATAL ERROR: 
[20] [45] 
Concentration under the threshold
[20] 
[20] 
[20]     From function macroScalarTransport
[81] 
[81] 
[20]     in file macroScalarTransport.C at line 118.
[20] 
FOAM parallel run exiting
[20] 
[81] --> FOAM FATAL ERROR: 
[81] Concentration under the threshold
[81] 
[81] 
[81]     From function macroScalarTransport
[81]     in file macroScalarTransport.C at line 118.
[81] 
FOAM parallel run exiting
[81] 
[54] [83] 
[83] 
[83] --> FOAM FATAL ERROR: 
[83] Concentration under the threshold
[83] 
[83] 
[83]     From function macroScalarTransport
[83]     in file macroScalarTransport.C at line 118.
[83] 
FOAM parallel run exiting
[83] 

[54] 
[54] --> FOAM FATAL ERROR: 
[54] Concentration under the threshold
[54] [44] [23] 
[44] 
[44] 
[23] 
[23] --> FOAM FATAL ERROR: 
[44] Concentration under the threshold
[44] 
[44] 
[44]     From function macroScalarTransport
[44]     in file macroScalarTransport.C at line 118--> FOAM FATAL ERROR: 
[23] Concentration under the threshold
[23] 
[23] 

[54] 
[54]     From function macroScalarTransport
[54]     in file [23]     From function macroScalarTransport
[23]     in file macroScalarTransport.C at line 118.macroScalarTransport.C at line 118.
[54] 
FOAM parallel run exiting
[54] 
.
[44] 
FOAM parallel run exiting
[44] 

[23] 
FOAM parallel run exiting
[23] 
[18] [22] 
[18] 
[18] 
[22] 
[22] --> FOAM FATAL ERROR: 
[22] Concentration under the threshold
[22] 
--> FOAM FATAL ERROR: 
[18] Concentration under the threshold
[18] 
[18] 
[18]     From function macroScalarTransport
[18]     in file macroScalarTransport.C at line 118.
[18] 
FOAM parallel run exiting
[18] 
[22] 
[22]     From function macroScalarTransport
[22]     in file macroScalarTransport.C at line 118.
[22] 
FOAM parallel run exiting
[22] 
[14] 
[14] 
[14] --> FOAM FATAL ERROR: 
[14] Concentration under the threshold
[47] [14] 
[14] 
[14]     From function macroScalarTransport
[14] 
[47] 
[47] --> FOAM FATAL ERROR: 
    in file macroScalarTransport.C at line 118.
[14] 
FOAM parallel run exiting
[14] 
[47] Concentration under the threshold
[47] 
[47] 
[47]     From function macroScalarTransport
[47]     in file macroScalarTransport.C at line 118.
[47] 
FOAM parallel run exiting
[47] 
[38] 
[38] 
[38] --> FOAM FATAL ERROR: 
[38] Concentration under the threshold
[38] 
[38] 
[38]     From function macroScalarTransport
[38]     in file macroScalarTransport.C at line 118.
[38] 
FOAM parallel run exiting
[38] 
[78] 
[78] 
[78] --> FOAM FATAL ERROR: 
[78] Concentration under the threshold
[78] 
[78] 
[78]     From function macroScalarTransport
[78]     in file macroScalarTransport.C at line 118.
[78] 
FOAM parallel run exiting
[78] 
[21] 
[21] 
[21] --> FOAM FATAL ERROR: 
[21] Concentration under the threshold
[21] 
[21] 
[21]     From function macroScalarTransport
[21]     in file macroScalarTransport.C at line 118.
[21] 
FOAM parallel run exiting
[21] 
[6] [2] 
[6] 
[6] --> FOAM FATAL ERROR: 
[6] Concentration under the threshold
[6] 
[6] 
[6]     From function macroScalarTransport
[6]     in file macroScalarTransport.C at line 118.
[6] 
FOAM parallel run exiting
[6] 

[2] 
[2] --> FOAM FATAL ERROR: 
[2] Concentration under the threshold
[2] 
[2] 
[2]     From function macroScalarTransport
[2]     in file macroScalarTransport.C at line 118.
[2] 
FOAM parallel run exiting
[2] 
[55] 
[55] 
[55] --> FOAM FATAL ERROR: 
[55] Concentration under the threshold
[55] 
[55] 
[55]     From function macroScalarTransport
[55]     in file macroScalarTransport.C at line 118.
[55] 
FOAM parallel run exiting
[55] 
[93] 
[93] 
[93] --> FOAM FATAL ERROR: 
[93] Concentration under the threshold
[93] 
[93] 
[93]     From function macroScalarTransport
[93]     in file macroScalarTransport.C at line 118.
[93] 
FOAM parallel run exiting
[93] 
[48] 
[48] 
[48] --> FOAM FATAL ERROR: 
[48] Concentration under the threshold
[48] 
[48] 
[48]     From function macroScalarTransport
[48]     in file macroScalarTransport.C at line 118.
[48] 
FOAM parallel run exiting
[48] 
[37] 
[37] 
[37] --> FOAM FATAL ERROR: 
[37] Concentration under the threshold
[37] 
[37] 
[37]     From function macroScalarTransport
[37]     in file macroScalarTransport.C at line 118.
[37] 
FOAM parallel run exiting
[37] 
[36] 
[36] 
[36] --> FOAM FATAL ERROR: 
[36] Concentration under the threshold
[36] 
[36] 
[36]     From function macroScalarTransport
[36]     in file macroScalarTransport.C at line 118.
[36] 
FOAM parallel run exiting
[36] 
[71] 
[71] 
[71] --> FOAM FATAL ERROR: 
[71] Concentration under the threshold
[71] 
[71] 
[71]     From function macroScalarTransport
[71]     in file macroScalarTransport.C at line 118.
[71] 
FOAM parallel run exiting
[71] 
[68] 
[68] 
[68] --> FOAM FATAL ERROR: 
[68] Concentration under the threshold
[68] 
[68] 
[68]     From function macroScalarTransport
[68]     in file macroScalarTransport.C at line 118.
[68] 
FOAM parallel run exiting
[68] 
[73] 
[73] 
[73] --> FOAM FATAL ERROR: 
[73] Concentration under the threshold
[73] 
[73] 
[73]     From function macroScalarTransport
[73]     in file macroScalarTransport.C at line 118.
[73] 
FOAM parallel run exiting
[73] 
[29] 
[29] 
[29] --> FOAM FATAL ERROR: 
[29] Concentration under the threshold
[29] 
[29] 
[29]     From function macroScalarTransport
[29]     in file macroScalarTransport.C at line 118.
[29] 
FOAM parallel run exiting
[29] 
[86] 
[86] 
[86] --> FOAM FATAL ERROR: 
[86] Concentration under the threshold
[86] 
[86] 
[86]     From function macroScalarTransport
[86]     in file macroScalarTransport.C at line 118.
[86] 
FOAM parallel run exiting
[86] 
[87] 
[87] 
[87] --> FOAM FATAL ERROR: 
[87] Concentration under the threshold
[87] 
[87] 
[87]     From function macroScalarTransport
[87]     in file macroScalarTransport.C at line 118.
[87] 
FOAM parallel run exiting
[87] 
[94] 
[94] 
[94] --> FOAM FATAL ERROR: 
[94] Concentration under the threshold
[94] 
[94] 
[94]     From function macroScalarTransport
[94]     in file macroScalarTransport.C at line 118.
[94] 
FOAM parallel run exiting
[94] 
[12] 
[12] 
[12] --> FOAM FATAL ERROR: 
[12] Concentration under the threshold
[12] 
[12] 
[12]     From function macroScalarTransport
[12]     in file macroScalarTransport.C at line 118.
[12] 
FOAM parallel run exiting
[12] 
[4] 
[4] 
[4] --> FOAM FATAL ERROR: 
[4] Concentration under the threshold
[4] 
[4] 
[4]     From function macroScalarTransport
[4]     in file macroScalarTransport.C at line 118.
[4] 
FOAM parallel run exiting
[4] 
[52] 
[52] 
[52] --> FOAM FATAL ERROR: 
[52] Concentration under the threshold
[52] 
[52] 
[52]     From function macroScalarTransport
[52]     in file macroScalarTransport.C at line 118.
[52] 
FOAM parallel run exiting
[52] 
[82] 
[82] 
[82] --> FOAM FATAL ERROR: 
[82] Concentration under the threshold
[82] 
[82] 
[82]     From function macroScalarTransport
[82]     in file macroScalarTransport.C at line 118.
[82] 
FOAM parallel run exiting
[82] 
[95] 
[95] 
[95] --> FOAM FATAL ERROR: 
[95] Concentration under the threshold
[95] 
[95] 
[95]     From function macroScalarTransport
[95]     in file macroScalarTransport.C at line 118.
[95] 
FOAM parallel run exiting
[95] 
[60] 
[60] 
[60] --> FOAM FATAL ERROR: 
[60] Concentration under the threshold
[60] 
[60] 
[60]     From function macroScalarTransport
[60]     in file macroScalarTransport.C at line 118.
[60] 
FOAM parallel run exiting
[60] 
--------------------------------------------------------------------------
MPI_ABORT was invoked on rank 51 in communicator MPI COMMUNICATOR 3 SPLIT FROM 0
with errorcode 1.

NOTE: invoking MPI_ABORT causes Open MPI to kill all MPI processes.
You may or may not see output from other processes, depending on
exactly when Open MPI kills them.
--------------------------------------------------------------------------
[compute014.int.augusta.nottingham.ac.uk:13650] PMIX ERROR: UNREACHABLE in file server/pmix_server.c at line 2193
[compute014.int.augusta.nottingham.ac.uk:13650] PMIX ERROR: UNREACHABLE in file server/pmix_server.c at line 2193
[compute014.int.augusta.nottingham.ac.uk:13650] PMIX ERROR: UNREACHABLE in file server/pmix_server.c at line 2193
[compute014.int.augusta.nottingham.ac.uk:13650] PMIX ERROR: UNREACHABLE in file server/pmix_server.c at line 2193
[compute014.int.augusta.nottingham.ac.uk:13650] PMIX ERROR: UNREACHABLE in file server/pmix_server.c at line 2193
[compute014.int.augusta.nottingham.ac.uk:13650] PMIX ERROR: UNREACHABLE in file server/pmix_server.c at line 2193
[compute014.int.augusta.nottingham.ac.uk:13650] PMIX ERROR: UNREACHABLE in file server/pmix_server.c at line 2193
[compute014.int.augusta.nottingham.ac.uk:13650] PMIX ERROR: UNREACHABLE in file server/pmix_server.c at line 2193
[compute014.int.augusta.nottingham.ac.uk:13650] PMIX ERROR: UNREACHABLE in file server/pmix_server.c at line 2193
[compute014.int.augusta.nottingham.ac.uk:13650] PMIX ERROR: UNREACHABLE in file server/pmix_server.c at line 2193
[compute014.int.augusta.nottingham.ac.uk:13650] PMIX ERROR: UNREACHABLE in file server/pmix_server.c at line 2193
[compute014.int.augusta.nottingham.ac.uk:13650] PMIX ERROR: UNREACHABLE in file server/pmix_server.c at line 2193
[compute014.int.augusta.nottingham.ac.uk:13650] 95 more processes have sent help message help-mpi-api.txt / mpi-abort
[compute014.int.augusta.nottingham.ac.uk:13650] Set MCA parameter "orte_base_help_aggregate" to 0 to see all help / error messages
