/*---------------------------------------------------------------------------*\
  =========                 |
  \\      /  F ield         | OpenFOAM: The Open Source CFD Toolbox
   \\    /   O peration     | Website:  https://openfoam.org
    \\  /    A nd           | Version:  8
     \\/     M anipulation  |
\*---------------------------------------------------------------------------*/
Build  : 8-1c9b5879390b
Exec   : postProcess -dict system/fieldMetricsDict -field c -parallel
Date   : Nov 18 2022
Time   : 10:32:19
Host   : "gercphd"
PID    : 19822
I/O    : uncollated
Case   : /data/pmxep5-8/PGSFlowTransport/tutorials/RESULTS/Herten/injectionArea/localInjection
nProcs : 12
Slaves : 
11
(
"gercphd.19823"
"gercphd.19824"
"gercphd.19825"
"gercphd.19826"
"gercphd.19827"
"gercphd.19828"
"gercphd.19829"
"gercphd.19830"
"gercphd.19831"
"gercphd.19832"
"gercphd.19833"
)

Pstream initialized with:
    floatTransfer      : 0
    nProcsSimpleSum    : 0
    commsType          : nonBlocking
    polling iterations : 0
sigFpe : Enabling floating point exception trapping (FOAM_SIGFPE).
fileModificationChecking : Monitoring run-time modified files using timeStampMaster (fileModificationSkew 10)
allowSystemOperations : Allowing user-supplied system call operations

// * * * * * * * * * * * * * * * * * * * * * * * * * * * * * * * * * * * * * //
Create time

Create mesh for time = 0

Time = 0

Reading fields:
    volScalarFields: c

Executing functionObjects
Computing meanAndVariance on c
Time=0 Mean=0 Var=0
meanAndVariance written to "/data/pmxep5-8/PGSFlowTransport/tutorials/RESULTS/Herten/injectionArea/localInjection/processor0/../postProcessing/fieldMetrics/0"
Computing meanAndVariance of position wrt field c
Time=0 MeanConcX=0 VarConcX=0 MeanConcY=0 VarConcY=0 MeanConcZ=0 VarConcZ=0
meanAndVarianceConc written to "/data/pmxep5-8/PGSFlowTransport/tutorials/RESULTS/Herten/injectionArea/localInjection/processor0/../postProcessing/fieldMetrics/0"

Time = 300

Reading fields:

Executing functionObjects
There is no field c

Time = 100000

Reading fields:
    volScalarFields: c

Executing functionObjects
Computing meanAndVariance on c
Time=100000 Mean=4.62729e-05 Var=1.31077e-06
meanAndVariance written to "/data/pmxep5-8/PGSFlowTransport/tutorials/RESULTS/Herten/injectionArea/localInjection/processor0/../postProcessing/fieldMetrics/100000"
Computing meanAndVariance of position wrt field c
Time=100000 MeanConcX=6.63198 VarConcX=21.2492 MeanConcY=4.94308 VarConcY=0.121443 MeanConcZ=3.4815 VarConcZ=0.134609
meanAndVarianceConc written to "/data/pmxep5-8/PGSFlowTransport/tutorials/RESULTS/Herten/injectionArea/localInjection/processor0/../postProcessing/fieldMetrics/100000"

Time = 200000

Reading fields:
    volScalarFields: c

Executing functionObjects
Computing meanAndVariance on c
Time=200000 Mean=5.861e-05 Var=2.68918e-06
meanAndVariance written to "/data/pmxep5-8/PGSFlowTransport/tutorials/RESULTS/Herten/injectionArea/localInjection/processor0/../postProcessing/fieldMetrics/200000"
Computing meanAndVariance of position wrt field c
Time=200000 MeanConcX=6.52121 VarConcX=23.1173 MeanConcY=4.90767 VarConcY=0.119882 MeanConcZ=3.41064 VarConcZ=0.18127
meanAndVarianceConc written to "/data/pmxep5-8/PGSFlowTransport/tutorials/RESULTS/Herten/injectionArea/localInjection/processor0/../postProcessing/fieldMetrics/200000"

Time = 300000

Reading fields:
    volScalarFields: c

Executing functionObjects
Computing meanAndVariance on c
Time=300000 Mean=6.98148e-05 Var=3.87768e-06
meanAndVariance written to "/data/pmxep5-8/PGSFlowTransport/tutorials/RESULTS/Herten/injectionArea/localInjection/processor0/../postProcessing/fieldMetrics/300000"
Computing meanAndVariance of position wrt field c
Time=300000 MeanConcX=6.42185 VarConcX=24.0362 MeanConcY=4.88835 VarConcY=0.119125 MeanConcZ=3.34642 VarConcZ=0.218015
meanAndVarianceConc written to "/data/pmxep5-8/PGSFlowTransport/tutorials/RESULTS/Herten/injectionArea/localInjection/processor0/../postProcessing/fieldMetrics/300000"

Time = 400000

Reading fields:
    volScalarFields: c

Executing functionObjects
Computing meanAndVariance on c
Time=400000 Mean=8.00198e-05 Var=4.93225e-06
meanAndVariance written to "/data/pmxep5-8/PGSFlowTransport/tutorials/RESULTS/Herten/injectionArea/localInjection/processor0/../postProcessing/fieldMetrics/400000"
Computing meanAndVariance of position wrt field c
Time=400000 MeanConcX=6.30749 VarConcX=24.3934 MeanConcY=4.87889 VarConcY=0.119863 MeanConcZ=3.28737 VarConcZ=0.244893
meanAndVarianceConc written to "/data/pmxep5-8/PGSFlowTransport/tutorials/RESULTS/Herten/injectionArea/localInjection/processor0/../postProcessing/fieldMetrics/400000"

Time = 500000

Reading fields:
    volScalarFields: c

Executing functionObjects
Computing meanAndVariance on c
Time=500000 Mean=8.9304e-05 Var=5.86201e-06
meanAndVariance written to "/data/pmxep5-8/PGSFlowTransport/tutorials/RESULTS/Herten/injectionArea/localInjection/processor0/../postProcessing/fieldMetrics/500000"
Computing meanAndVariance of position wrt field c
Time=500000 MeanConcX=6.18782 VarConcX=24.3831 MeanConcY=4.87633 VarConcY=0.123359 MeanConcZ=3.234 VarConcZ=0.265144
meanAndVarianceConc written to "/data/pmxep5-8/PGSFlowTransport/tutorials/RESULTS/Herten/injectionArea/localInjection/processor0/../postProcessing/fieldMetrics/500000"

Time = 600000

Reading fields:
    volScalarFields: c

Executing functionObjects
Computing meanAndVariance on c
Time=600000 Mean=9.75951e-05 Var=6.65259e-06
meanAndVariance written to "/data/pmxep5-8/PGSFlowTransport/tutorials/RESULTS/Herten/injectionArea/localInjection/processor0/../postProcessing/fieldMetrics/600000"
Computing meanAndVariance of position wrt field c
Time=600000 MeanConcX=6.07509 VarConcX=24.1162 MeanConcY=4.88029 VarConcY=0.132646 MeanConcZ=3.18666 VarConcZ=0.280188
meanAndVarianceConc written to "/data/pmxep5-8/PGSFlowTransport/tutorials/RESULTS/Herten/injectionArea/localInjection/processor0/../postProcessing/fieldMetrics/600000"

Time = 700000

Reading fields:
    volScalarFields: c

Executing functionObjects
Computing meanAndVariance on c
Time=700000 Mean=0.000104721 Var=7.2843e-06
meanAndVariance written to "/data/pmxep5-8/PGSFlowTransport/tutorials/RESULTS/Herten/injectionArea/localInjection/processor0/../postProcessing/fieldMetrics/700000"
Computing meanAndVariance of position wrt field c
Time=700000 MeanConcX=5.98545 VarConcX=23.7191 MeanConcY=4.89037 VarConcY=0.152384 MeanConcZ=3.14637 VarConcZ=0.291136
meanAndVarianceConc written to "/data/pmxep5-8/PGSFlowTransport/tutorials/RESULTS/Herten/injectionArea/localInjection/processor0/../postProcessing/fieldMetrics/700000"

Time = 800000

Reading fields:
    volScalarFields: c

Executing functionObjects
Computing meanAndVariance on c
Time=800000 Mean=0.000110532 Var=7.74369e-06
meanAndVariance written to "/data/pmxep5-8/PGSFlowTransport/tutorials/RESULTS/Herten/injectionArea/localInjection/processor0/../postProcessing/fieldMetrics/800000"
Computing meanAndVariance of position wrt field c
Time=800000 MeanConcX=5.92967 VarConcX=23.3263 MeanConcY=4.90525 VarConcY=0.18574 MeanConcZ=3.11439 VarConcZ=0.299044
meanAndVarianceConc written to "/data/pmxep5-8/PGSFlowTransport/tutorials/RESULTS/Herten/injectionArea/localInjection/processor0/../postProcessing/fieldMetrics/800000"

Time = 900000

Reading fields:
    volScalarFields: c

Executing functionObjects
Computing meanAndVariance on c
Time=900000 Mean=0.00011503 Var=8.0399e-06
meanAndVariance written to "/data/pmxep5-8/PGSFlowTransport/tutorials/RESULTS/Herten/injectionArea/localInjection/processor0/../postProcessing/fieldMetrics/900000"
Computing meanAndVariance of position wrt field c
Time=900000 MeanConcX=5.90582 VarConcX=23.0126 MeanConcY=4.92292 VarConcY=0.231485 MeanConcZ=3.0907 VarConcZ=0.304647
meanAndVarianceConc written to "/data/pmxep5-8/PGSFlowTransport/tutorials/RESULTS/Herten/injectionArea/localInjection/processor0/../postProcessing/fieldMetrics/900000"

Time = 1000000.000001

Reading fields:
    volScalarFields: c

Executing functionObjects
Computing meanAndVariance on c
Time=1000000.000001 Mean=0.000118403 Var=8.20976e-06
meanAndVariance written to "/data/pmxep5-8/PGSFlowTransport/tutorials/RESULTS/Herten/injectionArea/localInjection/processor0/../postProcessing/fieldMetrics/1000000.000001"
Computing meanAndVariance of position wrt field c
Time=1000000.000001 MeanConcX=5.90446 VarConcX=22.7902 MeanConcY=4.9414 VarConcY=0.284747 MeanConcZ=3.07389 VarConcZ=0.308487
meanAndVarianceConc written to "/data/pmxep5-8/PGSFlowTransport/tutorials/RESULTS/Herten/injectionArea/localInjection/processor0/../postProcessing/fieldMetrics/1000000.000001"

Time = 1100000.00000117952

Reading fields:
    volScalarFields: c

Executing functionObjects
Computing meanAndVariance on c
Time=1100000.00000117952 Mean=0.000120928 Var=8.29938e-06
meanAndVariance written to "/data/pmxep5-8/PGSFlowTransport/tutorials/RESULTS/Herten/injectionArea/localInjection/processor0/../postProcessing/fieldMetrics/1100000.00000117952"
Computing meanAndVariance of position wrt field c
Time=1100000.00000117952 MeanConcX=5.91571 VarConcX=22.641 MeanConcY=4.95917 VarConcY=0.339671 MeanConcZ=3.06209 VarConcZ=0.311042
meanAndVarianceConc written to "/data/pmxep5-8/PGSFlowTransport/tutorials/RESULTS/Herten/injectionArea/localInjection/processor0/../postProcessing/fieldMetrics/1100000.00000117952"

Time = 1200000.00000130339

Reading fields:
    volScalarFields: c

Executing functionObjects
Computing meanAndVariance on c
Time=1200000.00000130339 Mean=0.000122857 Var=8.34527e-06
meanAndVariance written to "/data/pmxep5-8/PGSFlowTransport/tutorials/RESULTS/Herten/injectionArea/localInjection/processor0/../postProcessing/fieldMetrics/1200000.00000130339"
Computing meanAndVariance of position wrt field c
Time=1200000.00000130339 MeanConcX=5.93237 VarConcX=22.5421 MeanConcY=4.97526 VarConcY=0.391386 MeanConcZ=3.05364 VarConcZ=0.312714
meanAndVarianceConc written to "/data/pmxep5-8/PGSFlowTransport/tutorials/RESULTS/Herten/injectionArea/localInjection/processor0/../postProcessing/fieldMetrics/1200000.00000130339"

Time = 1300000.00000142725

Reading fields:
    volScalarFields: c

Executing functionObjects
Computing meanAndVariance on c
Time=1300000.00000142725 Mean=0.000124377 Var=8.36961e-06
meanAndVariance written to "/data/pmxep5-8/PGSFlowTransport/tutorials/RESULTS/Herten/injectionArea/localInjection/processor0/../postProcessing/fieldMetrics/1300000.00000142725"
Computing meanAndVariance of position wrt field c
Time=1300000.00000142725 MeanConcX=5.95021 VarConcX=22.4751 MeanConcY=4.98918 VarConcY=0.436898 MeanConcZ=3.04739 VarConcZ=0.313797
meanAndVarianceConc written to "/data/pmxep5-8/PGSFlowTransport/tutorials/RESULTS/Herten/injectionArea/localInjection/processor0/../postProcessing/fieldMetrics/1300000.00000142725"

Time = 1400000.00000155112

Reading fields:
    volScalarFields: c

Executing functionObjects
Computing meanAndVariance on c
Time=1400000.00000155112 Mean=0.000125607 Var=8.3838e-06
meanAndVariance written to "/data/pmxep5-8/PGSFlowTransport/tutorials/RESULTS/Herten/injectionArea/localInjection/processor0/../postProcessing/fieldMetrics/1400000.00000155112"
Computing meanAndVariance of position wrt field c
Time=1400000.00000155112 MeanConcX=5.96718 VarConcX=22.4279 MeanConcY=5.00086 VarConcY=0.475115 MeanConcZ=3.04258 VarConcZ=0.314486
meanAndVarianceConc written to "/data/pmxep5-8/PGSFlowTransport/tutorials/RESULTS/Herten/injectionArea/localInjection/processor0/../postProcessing/fieldMetrics/1400000.00000155112"

Time = 1500000.00000167498

Reading fields:
    volScalarFields: c

Executing functionObjects
Computing meanAndVariance on c
Time=1500000.00000167498 Mean=0.000126625 Var=8.39307e-06
meanAndVariance written to "/data/pmxep5-8/PGSFlowTransport/tutorials/RESULTS/Herten/injectionArea/localInjection/processor0/../postProcessing/fieldMetrics/1500000.00000167498"
Computing meanAndVariance of position wrt field c
Time=1500000.00000167498 MeanConcX=5.98249 VarConcX=22.3931 MeanConcY=5.01047 VarConcY=0.506256 MeanConcZ=3.0388 VarConcZ=0.314907
meanAndVarianceConc written to "/data/pmxep5-8/PGSFlowTransport/tutorials/RESULTS/Herten/injectionArea/localInjection/processor0/../postProcessing/fieldMetrics/1500000.00000167498"

Time = 1600000.00000179885

Reading fields:
    volScalarFields: c

Executing functionObjects
Computing meanAndVariance on c
Time=1600000.00000179885 Mean=0.000127479 Var=8.39971e-06
meanAndVariance written to "/data/pmxep5-8/PGSFlowTransport/tutorials/RESULTS/Herten/injectionArea/localInjection/processor0/../postProcessing/fieldMetrics/1600000.00000179885"
Computing meanAndVariance of position wrt field c
Time=1600000.00000179885 MeanConcX=5.99596 VarConcX=22.3665 MeanConcY=5.0183 VarConcY=0.531124 MeanConcZ=3.03576 VarConcZ=0.315139
meanAndVarianceConc written to "/data/pmxep5-8/PGSFlowTransport/tutorials/RESULTS/Herten/injectionArea/localInjection/processor0/../postProcessing/fieldMetrics/1600000.00000179885"

Time = 1700000.00000192272

Reading fields:
    volScalarFields: c

Executing functionObjects
Computing meanAndVariance on c
Time=1700000.00000192272 Mean=0.0001282 Var=8.40477e-06
meanAndVariance written to "/data/pmxep5-8/PGSFlowTransport/tutorials/RESULTS/Herten/injectionArea/localInjection/processor0/../postProcessing/fieldMetrics/1700000.00000192272"
Computing meanAndVariance of position wrt field c
Time=1700000.00000192272 MeanConcX=6.00767 VarConcX=22.346 MeanConcY=5.0246 VarConcY=0.550654 MeanConcZ=3.03331 VarConcZ=0.315241
meanAndVarianceConc written to "/data/pmxep5-8/PGSFlowTransport/tutorials/RESULTS/Herten/injectionArea/localInjection/processor0/../postProcessing/fieldMetrics/1700000.00000192272"

End

Finalising parallel run
