/*---------------------------------------------------------------------------*\
  =========                 |
  \\      /  F ield         | OpenFOAM: The Open Source CFD Toolbox
   \\    /   O peration     | Website:  https://openfoam.org
    \\  /    A nd           | Version:  8
     \\/     M anipulation  |
\*---------------------------------------------------------------------------*/
Build  : 8
Exec   : blockMesh
Date   : Nov 19 2022
Time   : 07:15:21
Host   : "compute012.int.augusta.nottingham.ac.uk"
PID    : 150678
I/O    : uncollated
Case   : /gpfs01/home/pmxep5/PGSFlowTransport/tutorials/RESULTS/Herten/varMecDisp/varMecDisp1e0alpha
nProcs : 1
sigFpe : Enabling floating point exception trapping (FOAM_SIGFPE).
fileModificationChecking : Monitoring run-time modified files using timeStampMaster (fileModificationSkew 10)
allowSystemOperations : Allowing user-supplied system call operations

// * * * * * * * * * * * * * * * * * * * * * * * * * * * * * * * * * * * * * //
Create time

Deleting polyMesh directory
    "/gpfs01/home/pmxep5/PGSFlowTransport/tutorials/RESULTS/Herten/varMecDisp/varMecDisp1e0alpha/constant/polyMesh"
Creating block mesh from
    "system/blockMeshDict"
Creating block edges
No non-planar block faces defined
Creating topology blocks
Creating topology patches

Creating block mesh topology

Check topology

	Basic statistics
		Number of internal faces : 0
		Number of boundary faces : 6
		Number of defined boundary faces : 6
		Number of undefined boundary faces : 0
	Checking patch -> block consistency

Creating block offsets
Creating merge list .

Creating polyMesh from blockMesh
Creating patches
Creating cells
Creating points with scale 1
    Block 0 cell size :
        i : 0.05 .. 0.05
        j : 0.05 .. 0.05
        k : 0.05 .. 0.05

Writing polyMesh
----------------
Mesh Information
----------------
  boundingBox: (0 0 0) (16 10 7)
  nPoints: 9097461
  nCells: 8960000
  nFaces: 27016800
  nInternalFaces: 26743200
----------------
Patches
----------------
  patch 0 (start: 26743200 size: 28000) name: inlet
  patch 1 (start: 26771200 size: 28000) name: outlet
  patch 2 (start: 26799200 size: 64000) name: lowerWall
  patch 3 (start: 26863200 size: 64000) name: upperWall
  patch 4 (start: 26927200 size: 89600) name: frontAndBack

End

/*---------------------------------------------------------------------------*\
  =========                 |
  \\      /  F ield         | OpenFOAM: The Open Source CFD Toolbox
   \\    /   O peration     | Website:  https://openfoam.org
    \\  /    A nd           | Version:  8
     \\/     M anipulation  |
\*---------------------------------------------------------------------------*/
Build  : 8
Exec   : decomposePar
Date   : Nov 19 2022
Time   : 07:16:13
Host   : "compute012.int.augusta.nottingham.ac.uk"
PID    : 150701
I/O    : uncollated
Case   : /gpfs01/home/pmxep5/PGSFlowTransport/tutorials/RESULTS/Herten/varMecDisp/varMecDisp1e0alpha
nProcs : 1
sigFpe : Enabling floating point exception trapping (FOAM_SIGFPE).
fileModificationChecking : Monitoring run-time modified files using timeStampMaster (fileModificationSkew 10)
allowSystemOperations : Allowing user-supplied system call operations

// * * * * * * * * * * * * * * * * * * * * * * * * * * * * * * * * * * * * * //
Create time



Decomposing mesh region0

Create mesh

Calculating distribution of cells
Selecting decompositionMethod simple

Finished decomposition in 5.34 s

Calculating original mesh data

Distributing cells to processors

Distributing faces to processors

Distributing points to processors

Constructing processor meshes

Processor 0
    Number of cells = 94000
    Number of faces shared with processor 1 = 2350
    Number of faces shared with processor 8 = 1880
    Number of faces shared with processor 32 = 2000
    Number of processor patches = 3
    Number of processor faces = 6230
    Number of boundary faces = 6230

Processor 1
    Number of cells = 94000
    Number of faces shared with processor 0 = 2350
    Number of faces shared with processor 2 = 2350
    Number of faces shared with processor 9 = 1880
    Number of faces shared with processor 33 = 2000
    Number of processor patches = 4
    Number of processor faces = 8580
    Number of boundary faces = 3880

Processor 2
    Number of cells = 94000
    Number of faces shared with processor 1 = 2350
    Number of faces shared with processor 3 = 2350
    Number of faces shared with processor 10 = 1880
    Number of faces shared with processor 34 = 2000
    Number of processor patches = 4
    Number of processor faces = 8580
    Number of boundary faces = 3880

Processor 3
    Number of cells = 94000
    Number of faces shared with processor 2 = 2350
    Number of faces shared with processor 4 = 2350
    Number of faces shared with processor 11 = 1880
    Number of faces shared with processor 35 = 2000
    Number of processor patches = 4
    Number of processor faces = 8580
    Number of boundary faces = 3880

Processor 4
    Number of cells = 94000
    Number of faces shared with processor 3 = 2350
    Number of faces shared with processor 5 = 2350
    Number of faces shared with processor 12 = 1880
    Number of faces shared with processor 36 = 2000
    Number of processor patches = 4
    Number of processor faces = 8580
    Number of boundary faces = 3880

Processor 5
    Number of cells = 94000
    Number of faces shared with processor 4 = 2350
    Number of faces shared with processor 6 = 2350
    Number of faces shared with processor 13 = 1880
    Number of faces shared with processor 37 = 2000
    Number of processor patches = 4
    Number of processor faces = 8580
    Number of boundary faces = 3880

Processor 6
    Number of cells = 93864
    Number of faces shared with processor 5 = 2350
    Number of faces shared with processor 7 = 2332
    Number of faces shared with processor 14 = 1863
    Number of faces shared with processor 38 = 2032
    Number of faces shared with processor 39 = 2
    Number of faces shared with processor 46 = 1
    Number of processor patches = 6
    Number of processor faces = 8580
    Number of boundary faces = 3880

Processor 7
    Number of cells = 92528
    Number of faces shared with processor 6 = 2332
    Number of faces shared with processor 15 = 1840
    Number of faces shared with processor 39 = 2064
    Number of processor patches = 3
    Number of processor faces = 6236
    Number of boundary faces = 6172

Processor 8
    Number of cells = 94000
    Number of faces shared with processor 0 = 1880
    Number of faces shared with processor 9 = 2350
    Number of faces shared with processor 16 = 1880
    Number of faces shared with processor 40 = 2000
    Number of processor patches = 4
    Number of processor faces = 8110
    Number of boundary faces = 4350

Processor 9
    Number of cells = 94000
    Number of faces shared with processor 1 = 1880
    Number of faces shared with processor 8 = 2350
    Number of faces shared with processor 10 = 2350
    Number of faces shared with processor 17 = 1880
    Number of faces shared with processor 41 = 2000
    Number of processor patches = 5
    Number of processor faces = 10460
    Number of boundary faces = 2000

Processor 10
    Number of cells = 94000
    Number of faces shared with processor 2 = 1880
    Number of faces shared with processor 9 = 2350
    Number of faces shared with processor 11 = 2350
    Number of faces shared with processor 18 = 1880
    Number of faces shared with processor 42 = 2000
    Number of processor patches = 5
    Number of processor faces = 10460
    Number of boundary faces = 2000

Processor 11
    Number of cells = 94000
    Number of faces shared with processor 3 = 1880
    Number of faces shared with processor 10 = 2350
    Number of faces shared with processor 12 = 2350
    Number of faces shared with processor 19 = 1880
    Number of faces shared with processor 43 = 2000
    Number of processor patches = 5
    Number of processor faces = 10460
    Number of boundary faces = 2000

Processor 12
    Number of cells = 94000
    Number of faces shared with processor 4 = 1880
    Number of faces shared with processor 11 = 2350
    Number of faces shared with processor 13 = 2350
    Number of faces shared with processor 20 = 1880
    Number of faces shared with processor 44 = 2000
    Number of processor patches = 5
    Number of processor faces = 10460
    Number of boundary faces = 2000

Processor 13
    Number of cells = 93649
    Number of faces shared with processor 5 = 1880
    Number of faces shared with processor 12 = 2350
    Number of faces shared with processor 14 = 2323
    Number of faces shared with processor 21 = 1853
    Number of faces shared with processor 45 = 2052
    Number of faces shared with processor 46 = 1
    Number of faces shared with processor 53 = 1
    Number of processor patches = 7
    Number of processor faces = 10460
    Number of boundary faces = 2000

Processor 14
    Number of cells = 92276
    Number of faces shared with processor 6 = 1863
    Number of faces shared with processor 13 = 2323
    Number of faces shared with processor 15 = 2300
    Number of faces shared with processor 22 = 1840
    Number of faces shared with processor 46 = 2046
    Number of processor patches = 5
    Number of processor faces = 10372
    Number of boundary faces = 2000

Processor 15
    Number of cells = 92000
    Number of faces shared with processor 7 = 1840
    Number of faces shared with processor 14 = 2300
    Number of faces shared with processor 23 = 1840
    Number of faces shared with processor 47 = 2000
    Number of processor patches = 4
    Number of processor faces = 7980
    Number of boundary faces = 4300

Processor 16
    Number of cells = 94000
    Number of faces shared with processor 8 = 1880
    Number of faces shared with processor 17 = 2350
    Number of faces shared with processor 24 = 1880
    Number of faces shared with processor 48 = 2000
    Number of processor patches = 4
    Number of processor faces = 8110
    Number of boundary faces = 4350

Processor 17
    Number of cells = 94000
    Number of faces shared with processor 9 = 1880
    Number of faces shared with processor 16 = 2350
    Number of faces shared with processor 18 = 2350
    Number of faces shared with processor 25 = 1880
    Number of faces shared with processor 49 = 2000
    Number of processor patches = 5
    Number of processor faces = 10460
    Number of boundary faces = 2000

Processor 18
    Number of cells = 94000
    Number of faces shared with processor 10 = 1880
    Number of faces shared with processor 17 = 2350
    Number of faces shared with processor 19 = 2350
    Number of faces shared with processor 26 = 1880
    Number of faces shared with processor 50 = 2000
    Number of processor patches = 5
    Number of processor faces = 10460
    Number of boundary faces = 2000

Processor 19
    Number of cells = 94000
    Number of faces shared with processor 11 = 1880
    Number of faces shared with processor 18 = 2350
    Number of faces shared with processor 20 = 2350
    Number of faces shared with processor 27 = 1880
    Number of faces shared with processor 51 = 2000
    Number of processor patches = 5
    Number of processor faces = 10460
    Number of boundary faces = 2000

Processor 20
    Number of cells = 93334
    Number of faces shared with processor 12 = 1880
    Number of faces shared with processor 19 = 2350
    Number of faces shared with processor 21 = 2313
    Number of faces shared with processor 28 = 1843
    Number of faces shared with processor 52 = 2072
    Number of faces shared with processor 53 = 1
    Number of faces shared with processor 60 = 1
    Number of processor patches = 7
    Number of processor faces = 10460
    Number of boundary faces = 2000

Processor 21
    Number of cells = 92091
    Number of faces shared with processor 13 = 1853
    Number of faces shared with processor 20 = 2313
    Number of faces shared with processor 22 = 2300
    Number of faces shared with processor 29 = 1840
    Number of faces shared with processor 53 = 2026
    Number of processor patches = 5
    Number of processor faces = 10332
    Number of boundary faces = 2000

Processor 22
    Number of cells = 92000
    Number of faces shared with processor 14 = 1840
    Number of faces shared with processor 21 = 2300
    Number of faces shared with processor 23 = 2300
    Number of faces shared with processor 30 = 1840
    Number of faces shared with processor 54 = 2000
    Number of processor patches = 5
    Number of processor faces = 10280
    Number of boundary faces = 2000

Processor 23
    Number of cells = 92000
    Number of faces shared with processor 15 = 1840
    Number of faces shared with processor 22 = 2300
    Number of faces shared with processor 31 = 1840
    Number of faces shared with processor 55 = 2000
    Number of processor patches = 4
    Number of processor faces = 7980
    Number of boundary faces = 4300

Processor 24
    Number of cells = 94000
    Number of faces shared with processor 16 = 1880
    Number of faces shared with processor 25 = 2350
    Number of faces shared with processor 56 = 2000
    Number of processor patches = 3
    Number of processor faces = 6230
    Number of boundary faces = 6230

Processor 25
    Number of cells = 94000
    Number of faces shared with processor 17 = 1880
    Number of faces shared with processor 24 = 2350
    Number of faces shared with processor 26 = 2350
    Number of faces shared with processor 57 = 2000
    Number of processor patches = 4
    Number of processor faces = 8580
    Number of boundary faces = 3880

Processor 26
    Number of cells = 93979
    Number of faces shared with processor 18 = 1880
    Number of faces shared with processor 25 = 2350
    Number of faces shared with processor 27 = 2343
    Number of faces shared with processor 58 = 2012
    Number of faces shared with processor 59 = 1
    Number of processor patches = 5
    Number of processor faces = 8586
    Number of boundary faces = 3874

Processor 27
    Number of cells = 92940
    Number of faces shared with processor 19 = 1880
    Number of faces shared with processor 26 = 2343
    Number of faces shared with processor 28 = 2303
    Number of faces shared with processor 59 = 2079
    Number of faces shared with processor 60 = 1
    Number of processor patches = 5
    Number of processor faces = 8606
    Number of boundary faces = 3840

Processor 28
    Number of cells = 92006
    Number of faces shared with processor 20 = 1843
    Number of faces shared with processor 27 = 2303
    Number of faces shared with processor 29 = 2300
    Number of faces shared with processor 60 = 2006
    Number of processor patches = 4
    Number of processor faces = 8452
    Number of boundary faces = 3840

Processor 29
    Number of cells = 92000
    Number of faces shared with processor 21 = 1840
    Number of faces shared with processor 28 = 2300
    Number of faces shared with processor 30 = 2300
    Number of faces shared with processor 61 = 2000
    Number of processor patches = 4
    Number of processor faces = 8440
    Number of boundary faces = 3840

Processor 30
    Number of cells = 92000
    Number of faces shared with processor 22 = 1840
    Number of faces shared with processor 29 = 2300
    Number of faces shared with processor 31 = 2300
    Number of faces shared with processor 62 = 2000
    Number of processor patches = 4
    Number of processor faces = 8440
    Number of boundary faces = 3840

Processor 31
    Number of cells = 92000
    Number of faces shared with processor 23 = 1840
    Number of faces shared with processor 30 = 2300
    Number of faces shared with processor 63 = 2000
    Number of processor patches = 3
    Number of processor faces = 6140
    Number of boundary faces = 6140

Processor 32
    Number of cells = 94000
    Number of faces shared with processor 0 = 2000
    Number of faces shared with processor 33 = 2350
    Number of faces shared with processor 40 = 1880
    Number of faces shared with processor 64 = 2000
    Number of processor patches = 4
    Number of processor faces = 8230
    Number of boundary faces = 4230

Processor 33
    Number of cells = 94000
    Number of faces shared with processor 1 = 2000
    Number of faces shared with processor 32 = 2350
    Number of faces shared with processor 34 = 2350
    Number of faces shared with processor 41 = 1880
    Number of faces shared with processor 65 = 2000
    Number of processor patches = 5
    Number of processor faces = 10580
    Number of boundary faces = 1880

Processor 34
    Number of cells = 94000
    Number of faces shared with processor 2 = 2000
    Number of faces shared with processor 33 = 2350
    Number of faces shared with processor 35 = 2350
    Number of faces shared with processor 42 = 1880
    Number of faces shared with processor 66 = 2000
    Number of processor patches = 5
    Number of processor faces = 10580
    Number of boundary faces = 1880

Processor 35
    Number of cells = 93994
    Number of faces shared with processor 3 = 2000
    Number of faces shared with processor 34 = 2350
    Number of faces shared with processor 36 = 2346
    Number of faces shared with processor 43 = 1876
    Number of faces shared with processor 67 = 2006
    Number of faces shared with processor 68 = 1
    Number of faces shared with processor 75 = 1
    Number of processor patches = 7
    Number of processor faces = 10580
    Number of boundary faces = 1880

Processor 36
    Number of cells = 93060
    Number of faces shared with processor 4 = 2000
    Number of faces shared with processor 35 = 2346
    Number of faces shared with processor 37 = 2306
    Number of faces shared with processor 44 = 1840
    Number of faces shared with processor 68 = 2079
    Number of faces shared with processor 69 = 1
    Number of processor patches = 6
    Number of processor faces = 10572
    Number of boundary faces = 1880

Processor 37
    Number of cells = 92021
    Number of faces shared with processor 5 = 2000
    Number of faces shared with processor 36 = 2306
    Number of faces shared with processor 38 = 2300
    Number of faces shared with processor 45 = 1840
    Number of faces shared with processor 69 = 2012
    Number of processor patches = 5
    Number of processor faces = 10458
    Number of boundary faces = 1846

Processor 38
    Number of cells = 92136
    Number of faces shared with processor 6 = 2032
    Number of faces shared with processor 37 = 2300
    Number of faces shared with processor 39 = 2316
    Number of faces shared with processor 46 = 1856
    Number of faces shared with processor 70 = 2000
    Number of processor patches = 5
    Number of processor faces = 10504
    Number of boundary faces = 1840

Processor 39
    Number of cells = 93472
    Number of faces shared with processor 6 = 2
    Number of faces shared with processor 7 = 2064
    Number of faces shared with processor 38 = 2316
    Number of faces shared with processor 47 = 1880
    Number of faces shared with processor 71 = 2000
    Number of processor patches = 5
    Number of processor faces = 8262
    Number of boundary faces = 4198

Processor 40
    Number of cells = 94000
    Number of faces shared with processor 8 = 2000
    Number of faces shared with processor 32 = 1880
    Number of faces shared with processor 41 = 2350
    Number of faces shared with processor 48 = 1880
    Number of faces shared with processor 72 = 2000
    Number of processor patches = 5
    Number of processor faces = 10110
    Number of boundary faces = 2350

Processor 41
    Number of cells = 94000
    Number of faces shared with processor 9 = 2000
    Number of faces shared with processor 33 = 1880
    Number of faces shared with processor 40 = 2350
    Number of faces shared with processor 42 = 2350
    Number of faces shared with processor 49 = 1880
    Number of faces shared with processor 73 = 2000
    Number of processor patches = 6
    Number of processor faces = 12460
    Number of boundary faces = 0

Processor 42
    Number of cells = 93909
    Number of faces shared with processor 10 = 2000
    Number of faces shared with processor 34 = 1880
    Number of faces shared with processor 41 = 2350
    Number of faces shared with processor 43 = 2336
    Number of faces shared with processor 50 = 1866
    Number of faces shared with processor 74 = 2026
    Number of faces shared with processor 75 = 1
    Number of faces shared with processor 82 = 1
    Number of processor patches = 8
    Number of processor faces = 12460
    Number of boundary faces = 0

Processor 43
    Number of cells = 92666
    Number of faces shared with processor 11 = 2000
    Number of faces shared with processor 35 = 1876
    Number of faces shared with processor 42 = 2336
    Number of faces shared with processor 44 = 2300
    Number of faces shared with processor 51 = 1840
    Number of faces shared with processor 75 = 2072
    Number of processor patches = 6
    Number of processor faces = 12424
    Number of boundary faces = 0

Processor 44
    Number of cells = 92000
    Number of faces shared with processor 12 = 2000
    Number of faces shared with processor 36 = 1840
    Number of faces shared with processor 43 = 2300
    Number of faces shared with processor 45 = 2300
    Number of faces shared with processor 52 = 1840
    Number of faces shared with processor 76 = 2000
    Number of processor patches = 6
    Number of processor faces = 12280
    Number of boundary faces = 0

Processor 45
    Number of cells = 92351
    Number of faces shared with processor 13 = 2052
    Number of faces shared with processor 37 = 1840
    Number of faces shared with processor 44 = 2300
    Number of faces shared with processor 46 = 2326
    Number of faces shared with processor 53 = 1866
    Number of faces shared with processor 77 = 2000
    Number of processor patches = 6
    Number of processor faces = 12384
    Number of boundary faces = 0

Processor 46
    Number of cells = 93724
    Number of faces shared with processor 6 = 1
    Number of faces shared with processor 13 = 1
    Number of faces shared with processor 14 = 2046
    Number of faces shared with processor 38 = 1856
    Number of faces shared with processor 45 = 2326
    Number of faces shared with processor 47 = 2350
    Number of faces shared with processor 54 = 1880
    Number of faces shared with processor 78 = 2000
    Number of processor patches = 8
    Number of processor faces = 12460
    Number of boundary faces = 0

Processor 47
    Number of cells = 94000
    Number of faces shared with processor 15 = 2000
    Number of faces shared with processor 39 = 1880
    Number of faces shared with processor 46 = 2350
    Number of faces shared with processor 55 = 1880
    Number of faces shared with processor 79 = 2000
    Number of processor patches = 5
    Number of processor faces = 10110
    Number of boundary faces = 2350

Processor 48
    Number of cells = 94000
    Number of faces shared with processor 16 = 2000
    Number of faces shared with processor 40 = 1880
    Number of faces shared with processor 49 = 2350
    Number of faces shared with processor 56 = 1880
    Number of faces shared with processor 80 = 2000
    Number of processor patches = 5
    Number of processor faces = 10110
    Number of boundary faces = 2350

Processor 49
    Number of cells = 93724
    Number of faces shared with processor 17 = 2000
    Number of faces shared with processor 41 = 1880
    Number of faces shared with processor 48 = 2350
    Number of faces shared with processor 50 = 2326
    Number of faces shared with processor 57 = 1856
    Number of faces shared with processor 81 = 2046
    Number of faces shared with processor 82 = 1
    Number of faces shared with processor 89 = 1
    Number of processor patches = 8
    Number of processor faces = 12460
    Number of boundary faces = 0

Processor 50
    Number of cells = 92351
    Number of faces shared with processor 18 = 2000
    Number of faces shared with processor 42 = 1866
    Number of faces shared with processor 49 = 2326
    Number of faces shared with processor 51 = 2300
    Number of faces shared with processor 58 = 1840
    Number of faces shared with processor 82 = 2052
    Number of processor patches = 6
    Number of processor faces = 12384
    Number of boundary faces = 0

Processor 51
    Number of cells = 92000
    Number of faces shared with processor 19 = 2000
    Number of faces shared with processor 43 = 1840
    Number of faces shared with processor 50 = 2300
    Number of faces shared with processor 52 = 2300
    Number of faces shared with processor 59 = 1840
    Number of faces shared with processor 83 = 2000
    Number of processor patches = 6
    Number of processor faces = 12280
    Number of boundary faces = 0

Processor 52
    Number of cells = 92666
    Number of faces shared with processor 20 = 2072
    Number of faces shared with processor 44 = 1840
    Number of faces shared with processor 51 = 2300
    Number of faces shared with processor 53 = 2336
    Number of faces shared with processor 60 = 1876
    Number of faces shared with processor 84 = 2000
    Number of processor patches = 6
    Number of processor faces = 12424
    Number of boundary faces = 0

Processor 53
    Number of cells = 93909
    Number of faces shared with processor 13 = 1
    Number of faces shared with processor 20 = 1
    Number of faces shared with processor 21 = 2026
    Number of faces shared with processor 45 = 1866
    Number of faces shared with processor 52 = 2336
    Number of faces shared with processor 54 = 2350
    Number of faces shared with processor 61 = 1880
    Number of faces shared with processor 85 = 2000
    Number of processor patches = 8
    Number of processor faces = 12460
    Number of boundary faces = 0

Processor 54
    Number of cells = 94000
    Number of faces shared with processor 22 = 2000
    Number of faces shared with processor 46 = 1880
    Number of faces shared with processor 53 = 2350
    Number of faces shared with processor 55 = 2350
    Number of faces shared with processor 62 = 1880
    Number of faces shared with processor 86 = 2000
    Number of processor patches = 6
    Number of processor faces = 12460
    Number of boundary faces = 0

Processor 55
    Number of cells = 94000
    Number of faces shared with processor 23 = 2000
    Number of faces shared with processor 47 = 1880
    Number of faces shared with processor 54 = 2350
    Number of faces shared with processor 63 = 1880
    Number of faces shared with processor 87 = 2000
    Number of processor patches = 5
    Number of processor faces = 10110
    Number of boundary faces = 2350

Processor 56
    Number of cells = 93472
    Number of faces shared with processor 24 = 2000
    Number of faces shared with processor 48 = 1880
    Number of faces shared with processor 57 = 2317
    Number of faces shared with processor 88 = 2064
    Number of faces shared with processor 89 = 1
    Number of processor patches = 5
    Number of processor faces = 8262
    Number of boundary faces = 4198

Processor 57
    Number of cells = 92137
    Number of faces shared with processor 25 = 2000
    Number of faces shared with processor 49 = 1856
    Number of faces shared with processor 56 = 2317
    Number of faces shared with processor 58 = 2300
    Number of faces shared with processor 89 = 2033
    Number of processor patches = 5
    Number of processor faces = 10506
    Number of boundary faces = 1840

Processor 58
    Number of cells = 92021
    Number of faces shared with processor 26 = 2012
    Number of faces shared with processor 50 = 1840
    Number of faces shared with processor 57 = 2300
    Number of faces shared with processor 59 = 2306
    Number of faces shared with processor 90 = 2000
    Number of processor patches = 5
    Number of processor faces = 10458
    Number of boundary faces = 1846

Processor 59
    Number of cells = 93060
    Number of faces shared with processor 26 = 1
    Number of faces shared with processor 27 = 2079
    Number of faces shared with processor 51 = 1840
    Number of faces shared with processor 58 = 2306
    Number of faces shared with processor 60 = 2346
    Number of faces shared with processor 91 = 2000
    Number of processor patches = 6
    Number of processor faces = 10572
    Number of boundary faces = 1880

Processor 60
    Number of cells = 93994
    Number of faces shared with processor 20 = 1
    Number of faces shared with processor 27 = 1
    Number of faces shared with processor 28 = 2006
    Number of faces shared with processor 52 = 1876
    Number of faces shared with processor 59 = 2346
    Number of faces shared with processor 61 = 2350
    Number of faces shared with processor 92 = 2000
    Number of processor patches = 7
    Number of processor faces = 10580
    Number of boundary faces = 1880

Processor 61
    Number of cells = 94000
    Number of faces shared with processor 29 = 2000
    Number of faces shared with processor 53 = 1880
    Number of faces shared with processor 60 = 2350
    Number of faces shared with processor 62 = 2350
    Number of faces shared with processor 93 = 2000
    Number of processor patches = 5
    Number of processor faces = 10580
    Number of boundary faces = 1880

Processor 62
    Number of cells = 94000
    Number of faces shared with processor 30 = 2000
    Number of faces shared with processor 54 = 1880
    Number of faces shared with processor 61 = 2350
    Number of faces shared with processor 63 = 2350
    Number of faces shared with processor 94 = 2000
    Number of processor patches = 5
    Number of processor faces = 10580
    Number of boundary faces = 1880

Processor 63
    Number of cells = 94000
    Number of faces shared with processor 31 = 2000
    Number of faces shared with processor 55 = 1880
    Number of faces shared with processor 62 = 2350
    Number of faces shared with processor 95 = 2000
    Number of processor patches = 4
    Number of processor faces = 8230
    Number of boundary faces = 4230

Processor 64
    Number of cells = 92000
    Number of faces shared with processor 32 = 2000
    Number of faces shared with processor 65 = 2300
    Number of faces shared with processor 72 = 1840
    Number of processor patches = 3
    Number of processor faces = 6140
    Number of boundary faces = 6140

Processor 65
    Number of cells = 92000
    Number of faces shared with processor 33 = 2000
    Number of faces shared with processor 64 = 2300
    Number of faces shared with processor 66 = 2300
    Number of faces shared with processor 73 = 1840
    Number of processor patches = 4
    Number of processor faces = 8440
    Number of boundary faces = 3840

Processor 66
    Number of cells = 92000
    Number of faces shared with processor 34 = 2000
    Number of faces shared with processor 65 = 2300
    Number of faces shared with processor 67 = 2300
    Number of faces shared with processor 74 = 1840
    Number of processor patches = 4
    Number of processor faces = 8440
    Number of boundary faces = 3840

Processor 67
    Number of cells = 92006
    Number of faces shared with processor 35 = 2006
    Number of faces shared with processor 66 = 2300
    Number of faces shared with processor 68 = 2303
    Number of faces shared with processor 75 = 1843
    Number of processor patches = 4
    Number of processor faces = 8452
    Number of boundary faces = 3840

Processor 68
    Number of cells = 92940
    Number of faces shared with processor 35 = 1
    Number of faces shared with processor 36 = 2079
    Number of faces shared with processor 67 = 2303
    Number of faces shared with processor 69 = 2343
    Number of faces shared with processor 76 = 1880
    Number of processor patches = 5
    Number of processor faces = 8606
    Number of boundary faces = 3840

Processor 69
    Number of cells = 93979
    Number of faces shared with processor 36 = 1
    Number of faces shared with processor 37 = 2012
    Number of faces shared with processor 68 = 2343
    Number of faces shared with processor 70 = 2350
    Number of faces shared with processor 77 = 1880
    Number of processor patches = 5
    Number of processor faces = 8586
    Number of boundary faces = 3874

Processor 70
    Number of cells = 94000
    Number of faces shared with processor 38 = 2000
    Number of faces shared with processor 69 = 2350
    Number of faces shared with processor 71 = 2350
    Number of faces shared with processor 78 = 1880
    Number of processor patches = 4
    Number of processor faces = 8580
    Number of boundary faces = 3880

Processor 71
    Number of cells = 94000
    Number of faces shared with processor 39 = 2000
    Number of faces shared with processor 70 = 2350
    Number of faces shared with processor 79 = 1880
    Number of processor patches = 3
    Number of processor faces = 6230
    Number of boundary faces = 6230

Processor 72
    Number of cells = 92000
    Number of faces shared with processor 40 = 2000
    Number of faces shared with processor 64 = 1840
    Number of faces shared with processor 73 = 2300
    Number of faces shared with processor 80 = 1840
    Number of processor patches = 4
    Number of processor faces = 7980
    Number of boundary faces = 4300

Processor 73
    Number of cells = 92000
    Number of faces shared with processor 41 = 2000
    Number of faces shared with processor 65 = 1840
    Number of faces shared with processor 72 = 2300
    Number of faces shared with processor 74 = 2300
    Number of faces shared with processor 81 = 1840
    Number of processor patches = 5
    Number of processor faces = 10280
    Number of boundary faces = 2000

Processor 74
    Number of cells = 92091
    Number of faces shared with processor 42 = 2026
    Number of faces shared with processor 66 = 1840
    Number of faces shared with processor 73 = 2300
    Number of faces shared with processor 75 = 2313
    Number of faces shared with processor 82 = 1853
    Number of processor patches = 5
    Number of processor faces = 10332
    Number of boundary faces = 2000

Processor 75
    Number of cells = 93334
    Number of faces shared with processor 35 = 1
    Number of faces shared with processor 42 = 1
    Number of faces shared with processor 43 = 2072
    Number of faces shared with processor 67 = 1843
    Number of faces shared with processor 74 = 2313
    Number of faces shared with processor 76 = 2350
    Number of faces shared with processor 83 = 1880
    Number of processor patches = 7
    Number of processor faces = 10460
    Number of boundary faces = 2000

Processor 76
    Number of cells = 94000
    Number of faces shared with processor 44 = 2000
    Number of faces shared with processor 68 = 1880
    Number of faces shared with processor 75 = 2350
    Number of faces shared with processor 77 = 2350
    Number of faces shared with processor 84 = 1880
    Number of processor patches = 5
    Number of processor faces = 10460
    Number of boundary faces = 2000

Processor 77
    Number of cells = 94000
    Number of faces shared with processor 45 = 2000
    Number of faces shared with processor 69 = 1880
    Number of faces shared with processor 76 = 2350
    Number of faces shared with processor 78 = 2350
    Number of faces shared with processor 85 = 1880
    Number of processor patches = 5
    Number of processor faces = 10460
    Number of boundary faces = 2000

Processor 78
    Number of cells = 94000
    Number of faces shared with processor 46 = 2000
    Number of faces shared with processor 70 = 1880
    Number of faces shared with processor 77 = 2350
    Number of faces shared with processor 79 = 2350
    Number of faces shared with processor 86 = 1880
    Number of processor patches = 5
    Number of processor faces = 10460
    Number of boundary faces = 2000

Processor 79
    Number of cells = 94000
    Number of faces shared with processor 47 = 2000
    Number of faces shared with processor 71 = 1880
    Number of faces shared with processor 78 = 2350
    Number of faces shared with processor 87 = 1880
    Number of processor patches = 4
    Number of processor faces = 8110
    Number of boundary faces = 4350

Processor 80
    Number of cells = 92000
    Number of faces shared with processor 48 = 2000
    Number of faces shared with processor 72 = 1840
    Number of faces shared with processor 81 = 2300
    Number of faces shared with processor 88 = 1840
    Number of processor patches = 4
    Number of processor faces = 7980
    Number of boundary faces = 4300

Processor 81
    Number of cells = 92276
    Number of faces shared with processor 49 = 2046
    Number of faces shared with processor 73 = 1840
    Number of faces shared with processor 80 = 2300
    Number of faces shared with processor 82 = 2323
    Number of faces shared with processor 89 = 1863
    Number of processor patches = 5
    Number of processor faces = 10372
    Number of boundary faces = 2000

Processor 82
    Number of cells = 93649
    Number of faces shared with processor 42 = 1
    Number of faces shared with processor 49 = 1
    Number of faces shared with processor 50 = 2052
    Number of faces shared with processor 74 = 1853
    Number of faces shared with processor 81 = 2323
    Number of faces shared with processor 83 = 2350
    Number of faces shared with processor 90 = 1880
    Number of processor patches = 7
    Number of processor faces = 10460
    Number of boundary faces = 2000

Processor 83
    Number of cells = 94000
    Number of faces shared with processor 51 = 2000
    Number of faces shared with processor 75 = 1880
    Number of faces shared with processor 82 = 2350
    Number of faces shared with processor 84 = 2350
    Number of faces shared with processor 91 = 1880
    Number of processor patches = 5
    Number of processor faces = 10460
    Number of boundary faces = 2000

Processor 84
    Number of cells = 94000
    Number of faces shared with processor 52 = 2000
    Number of faces shared with processor 76 = 1880
    Number of faces shared with processor 83 = 2350
    Number of faces shared with processor 85 = 2350
    Number of faces shared with processor 92 = 1880
    Number of processor patches = 5
    Number of processor faces = 10460
    Number of boundary faces = 2000

Processor 85
    Number of cells = 94000
    Number of faces shared with processor 53 = 2000
    Number of faces shared with processor 77 = 1880
    Number of faces shared with processor 84 = 2350
    Number of faces shared with processor 86 = 2350
    Number of faces shared with processor 93 = 1880
    Number of processor patches = 5
    Number of processor faces = 10460
    Number of boundary faces = 2000

Processor 86
    Number of cells = 94000
    Number of faces shared with processor 54 = 2000
    Number of faces shared with processor 78 = 1880
    Number of faces shared with processor 85 = 2350
    Number of faces shared with processor 87 = 2350
    Number of faces shared with processor 94 = 1880
    Number of processor patches = 5
    Number of processor faces = 10460
    Number of boundary faces = 2000

Processor 87
    Number of cells = 94000
    Number of faces shared with processor 55 = 2000
    Number of faces shared with processor 79 = 1880
    Number of faces shared with processor 86 = 2350
    Number of faces shared with processor 95 = 1880
    Number of processor patches = 4
    Number of processor faces = 8110
    Number of boundary faces = 4350

Processor 88
    Number of cells = 92528
    Number of faces shared with processor 56 = 2064
    Number of faces shared with processor 80 = 1840
    Number of faces shared with processor 89 = 2332
    Number of processor patches = 3
    Number of processor faces = 6236
    Number of boundary faces = 6172

Processor 89
    Number of cells = 93863
    Number of faces shared with processor 49 = 1
    Number of faces shared with processor 56 = 1
    Number of faces shared with processor 57 = 2033
    Number of faces shared with processor 81 = 1863
    Number of faces shared with processor 88 = 2332
    Number of faces shared with processor 90 = 2350
    Number of processor patches = 6
    Number of processor faces = 8580
    Number of boundary faces = 3880

Processor 90
    Number of cells = 94000
    Number of faces shared with processor 58 = 2000
    Number of faces shared with processor 82 = 1880
    Number of faces shared with processor 89 = 2350
    Number of faces shared with processor 91 = 2350
    Number of processor patches = 4
    Number of processor faces = 8580
    Number of boundary faces = 3880

Processor 91
    Number of cells = 94000
    Number of faces shared with processor 59 = 2000
    Number of faces shared with processor 83 = 1880
    Number of faces shared with processor 90 = 2350
    Number of faces shared with processor 92 = 2350
    Number of processor patches = 4
    Number of processor faces = 8580
    Number of boundary faces = 3880

Processor 92
    Number of cells = 94000
    Number of faces shared with processor 60 = 2000
    Number of faces shared with processor 84 = 1880
    Number of faces shared with processor 91 = 2350
    Number of faces shared with processor 93 = 2350
    Number of processor patches = 4
    Number of processor faces = 8580
    Number of boundary faces = 3880

Processor 93
    Number of cells = 94000
    Number of faces shared with processor 61 = 2000
    Number of faces shared with processor 85 = 1880
    Number of faces shared with processor 92 = 2350
    Number of faces shared with processor 94 = 2350
    Number of processor patches = 4
    Number of processor faces = 8580
    Number of boundary faces = 3880

Processor 94
    Number of cells = 94000
    Number of faces shared with processor 62 = 2000
    Number of faces shared with processor 86 = 1880
    Number of faces shared with processor 93 = 2350
    Number of faces shared with processor 95 = 2350
    Number of processor patches = 4
    Number of processor faces = 8580
    Number of boundary faces = 3880

Processor 95
    Number of cells = 94000
    Number of faces shared with processor 63 = 2000
    Number of faces shared with processor 87 = 1880
    Number of faces shared with processor 94 = 2350
    Number of processor patches = 3
    Number of processor faces = 6230
    Number of boundary faces = 6230

Number of processor faces = 459179
Max number of cells = 94000 (0.714286% above average 93333.3)
Max number of processor patches = 8 (62.7119% above average 4.91667)
Max number of faces between processors = 12460 (30.2499% above average 9566.23)

Time = 0

Processor 0: field transfer
Processor 1: field transfer
Processor 2: field transfer
Processor 3: field transfer
Processor 4: field transfer
Processor 5: field transfer
Processor 6: field transfer
Processor 7: field transfer
Processor 8: field transfer
Processor 9: field transfer
Processor 10: field transfer
Processor 11: field transfer
Processor 12: field transfer
Processor 13: field transfer
Processor 14: field transfer
Processor 15: field transfer
Processor 16: field transfer
Processor 17: field transfer
Processor 18: field transfer
Processor 19: field transfer
Processor 20: field transfer
Processor 21: field transfer
Processor 22: field transfer
Processor 23: field transfer
Processor 24: field transfer
Processor 25: field transfer
Processor 26: field transfer
Processor 27: field transfer
Processor 28: field transfer
Processor 29: field transfer
Processor 30: field transfer
Processor 31: field transfer
Processor 32: field transfer
Processor 33: field transfer
Processor 34: field transfer
Processor 35: field transfer
Processor 36: field transfer
Processor 37: field transfer
Processor 38: field transfer
Processor 39: field transfer
Processor 40: field transfer
Processor 41: field transfer
Processor 42: field transfer
Processor 43: field transfer
Processor 44: field transfer
Processor 45: field transfer
Processor 46: field transfer
Processor 47: field transfer
Processor 48: field transfer
Processor 49: field transfer
Processor 50: field transfer
Processor 51: field transfer
Processor 52: field transfer
Processor 53: field transfer
Processor 54: field transfer
Processor 55: field transfer
Processor 56: field transfer
Processor 57: field transfer
Processor 58: field transfer
Processor 59: field transfer
Processor 60: field transfer
Processor 61: field transfer
Processor 62: field transfer
Processor 63: field transfer
Processor 64: field transfer
Processor 65: field transfer
Processor 66: field transfer
Processor 67: field transfer
Processor 68: field transfer
Processor 69: field transfer
Processor 70: field transfer
Processor 71: field transfer
Processor 72: field transfer
Processor 73: field transfer
Processor 74: field transfer
Processor 75: field transfer
Processor 76: field transfer
Processor 77: field transfer
Processor 78: field transfer
Processor 79: field transfer
Processor 80: field transfer
Processor 81: field transfer
Processor 82: field transfer
Processor 83: field transfer
Processor 84: field transfer
Processor 85: field transfer
Processor 86: field transfer
Processor 87: field transfer
Processor 88: field transfer
Processor 89: field transfer
Processor 90: field transfer
Processor 91: field transfer
Processor 92: field transfer
Processor 93: field transfer
Processor 94: field transfer
Processor 95: field transfer

End

/*---------------------------------------------------------------------------*\
  =========                 |
  \\      /  F ield         | OpenFOAM: The Open Source CFD Toolbox
   \\    /   O peration     | Website:  https://openfoam.org
    \\  /    A nd           | Version:  8
     \\/     M anipulation  |
\*---------------------------------------------------------------------------*/
Build  : 8
Exec   : simpleDarcyFoam -parallel
Date   : Nov 19 2022
Time   : 07:18:36
Host   : "compute012.int.augusta.nottingham.ac.uk"
PID    : 150925
I/O    : uncollated
Case   : /gpfs01/home/pmxep5/PGSFlowTransport/tutorials/RESULTS/Herten/varMecDisp/varMecDisp1e0alpha
nProcs : 96
Slaves : 
95
(
"compute012.int.augusta.nottingham.ac.uk.150926"
"compute012.int.augusta.nottingham.ac.uk.150927"
"compute012.int.augusta.nottingham.ac.uk.150928"
"compute012.int.augusta.nottingham.ac.uk.150929"
"compute012.int.augusta.nottingham.ac.uk.150930"
"compute012.int.augusta.nottingham.ac.uk.150931"
"compute012.int.augusta.nottingham.ac.uk.150932"
"compute012.int.augusta.nottingham.ac.uk.150933"
"compute012.int.augusta.nottingham.ac.uk.150934"
"compute012.int.augusta.nottingham.ac.uk.150935"
"compute012.int.augusta.nottingham.ac.uk.150936"
"compute013.int.augusta.nottingham.ac.uk.185146"
"compute013.int.augusta.nottingham.ac.uk.185147"
"compute013.int.augusta.nottingham.ac.uk.185148"
"compute013.int.augusta.nottingham.ac.uk.185149"
"compute013.int.augusta.nottingham.ac.uk.185150"
"compute013.int.augusta.nottingham.ac.uk.185151"
"compute013.int.augusta.nottingham.ac.uk.185152"
"compute013.int.augusta.nottingham.ac.uk.185153"
"compute013.int.augusta.nottingham.ac.uk.185154"
"compute013.int.augusta.nottingham.ac.uk.185155"
"compute013.int.augusta.nottingham.ac.uk.185156"
"compute013.int.augusta.nottingham.ac.uk.185157"
"compute014.int.augusta.nottingham.ac.uk.12528"
"compute014.int.augusta.nottingham.ac.uk.12529"
"compute014.int.augusta.nottingham.ac.uk.12530"
"compute014.int.augusta.nottingham.ac.uk.12531"
"compute014.int.augusta.nottingham.ac.uk.12532"
"compute014.int.augusta.nottingham.ac.uk.12533"
"compute014.int.augusta.nottingham.ac.uk.12534"
"compute014.int.augusta.nottingham.ac.uk.12535"
"compute014.int.augusta.nottingham.ac.uk.12536"
"compute014.int.augusta.nottingham.ac.uk.12537"
"compute014.int.augusta.nottingham.ac.uk.12538"
"compute014.int.augusta.nottingham.ac.uk.12539"
"compute015.int.augusta.nottingham.ac.uk.262068"
"compute015.int.augusta.nottingham.ac.uk.262069"
"compute015.int.augusta.nottingham.ac.uk.262070"
"compute015.int.augusta.nottingham.ac.uk.262071"
"compute015.int.augusta.nottingham.ac.uk.262072"
"compute015.int.augusta.nottingham.ac.uk.262073"
"compute015.int.augusta.nottingham.ac.uk.262074"
"compute015.int.augusta.nottingham.ac.uk.262075"
"compute015.int.augusta.nottingham.ac.uk.262076"
"compute015.int.augusta.nottingham.ac.uk.262077"
"compute015.int.augusta.nottingham.ac.uk.262078"
"compute015.int.augusta.nottingham.ac.uk.262079"
"compute016.int.augusta.nottingham.ac.uk.239859"
"compute016.int.augusta.nottingham.ac.uk.239860"
"compute016.int.augusta.nottingham.ac.uk.239861"
"compute016.int.augusta.nottingham.ac.uk.239862"
"compute016.int.augusta.nottingham.ac.uk.239863"
"compute016.int.augusta.nottingham.ac.uk.239864"
"compute016.int.augusta.nottingham.ac.uk.239865"
"compute016.int.augusta.nottingham.ac.uk.239866"
"compute016.int.augusta.nottingham.ac.uk.239867"
"compute016.int.augusta.nottingham.ac.uk.239868"
"compute016.int.augusta.nottingham.ac.uk.239869"
"compute016.int.augusta.nottingham.ac.uk.239870"
"compute030.int.augusta.nottingham.ac.uk.205820"
"compute030.int.augusta.nottingham.ac.uk.205821"
"compute030.int.augusta.nottingham.ac.uk.205822"
"compute030.int.augusta.nottingham.ac.uk.205823"
"compute030.int.augusta.nottingham.ac.uk.205824"
"compute030.int.augusta.nottingham.ac.uk.205825"
"compute030.int.augusta.nottingham.ac.uk.205826"
"compute030.int.augusta.nottingham.ac.uk.205827"
"compute030.int.augusta.nottingham.ac.uk.205828"
"compute030.int.augusta.nottingham.ac.uk.205829"
"compute030.int.augusta.nottingham.ac.uk.205830"
"compute030.int.augusta.nottingham.ac.uk.205831"
"compute031.int.augusta.nottingham.ac.uk.170912"
"compute031.int.augusta.nottingham.ac.uk.170913"
"compute031.int.augusta.nottingham.ac.uk.170914"
"compute031.int.augusta.nottingham.ac.uk.170915"
"compute031.int.augusta.nottingham.ac.uk.170916"
"compute031.int.augusta.nottingham.ac.uk.170917"
"compute031.int.augusta.nottingham.ac.uk.170918"
"compute031.int.augusta.nottingham.ac.uk.170919"
"compute031.int.augusta.nottingham.ac.uk.170920"
"compute031.int.augusta.nottingham.ac.uk.170921"
"compute031.int.augusta.nottingham.ac.uk.170922"
"compute031.int.augusta.nottingham.ac.uk.170923"
"compute032.int.augusta.nottingham.ac.uk.195663"
"compute032.int.augusta.nottingham.ac.uk.195664"
"compute032.int.augusta.nottingham.ac.uk.195665"
"compute032.int.augusta.nottingham.ac.uk.195666"
"compute032.int.augusta.nottingham.ac.uk.195667"
"compute032.int.augusta.nottingham.ac.uk.195668"
"compute032.int.augusta.nottingham.ac.uk.195669"
"compute032.int.augusta.nottingham.ac.uk.195670"
"compute032.int.augusta.nottingham.ac.uk.195671"
"compute032.int.augusta.nottingham.ac.uk.195672"
"compute032.int.augusta.nottingham.ac.uk.195673"
"compute032.int.augusta.nottingham.ac.uk.195674"
)

Pstream initialized with:
    floatTransfer      : 0
    nProcsSimpleSum    : 0
    commsType          : nonBlocking
    polling iterations : 0
sigFpe : Enabling floating point exception trapping (FOAM_SIGFPE).
fileModificationChecking : Monitoring run-time modified files using timeStampMaster (fileModificationSkew 10)
allowSystemOperations : Allowing user-supplied system call operations

// * * * * * * * * * * * * * * * * * * * * * * * * * * * * * * * * * * * * * //
Create time

Create mesh for time = 0


SIMPLE: Convergence criteria found
        p: tolerance 1e-10
        c: tolerance 1e-10


Reading g

Reading field p

Reading transportProperties

Reading field K

Reading/calculating face flux field phi

No finite volume options present

Starting time loop

Time = 100

DICPBiCGStab:  Solving for p, Initial residual = 1, Final residual = 9.6644e-07, No Iterations 501
Mean velocity  = (0.000273321 1.48838e-07 1.13263e-06)

ExecutionTime = 6.39 s  ClockTime = 7 s

Time = 200

DICPBiCGStab:  Solving for p, Initial residual = 5.12367e-07, Final residual = 4.40975e-13, No Iterations 403
Mean velocity  = (0.000273324 1.5024e-07 1.13147e-06)

ExecutionTime = 10.38 s  ClockTime = 11 s

Time = 300

DICPBiCGStab:  Solving for p, Initial residual = 5.0836e-13, Final residual = 4.52373e-16, No Iterations 247
Mean velocity  = (0.000273324 1.5024e-07 1.13147e-06)

ExecutionTime = 12.93 s  ClockTime = 13 s


SIMPLE solution converged in 300 iterations

End

Finalising parallel run
/*---------------------------------------------------------------------------*\
  =========                 |
  \\      /  F ield         | OpenFOAM: The Open Source CFD Toolbox
   \\    /   O peration     | Website:  https://openfoam.org
    \\  /    A nd           | Version:  8
     \\/     M anipulation  |
\*---------------------------------------------------------------------------*/
Build  : 8
Exec   : macroScalarTransport -parallel
Date   : Nov 19 2022
Time   : 07:20:50
Host   : "compute012.int.augusta.nottingham.ac.uk"
PID    : 151990
I/O    : uncollated
Case   : /gpfs01/home/pmxep5/PGSFlowTransport/tutorials/RESULTS/Herten/varMecDisp/varMecDisp1e0alpha
nProcs : 96
Slaves : 
95
(
"compute012.int.augusta.nottingham.ac.uk.151991"
"compute012.int.augusta.nottingham.ac.uk.151992"
"compute012.int.augusta.nottingham.ac.uk.151993"
"compute012.int.augusta.nottingham.ac.uk.151994"
"compute012.int.augusta.nottingham.ac.uk.151995"
"compute012.int.augusta.nottingham.ac.uk.151996"
"compute012.int.augusta.nottingham.ac.uk.151997"
"compute012.int.augusta.nottingham.ac.uk.151998"
"compute012.int.augusta.nottingham.ac.uk.151999"
"compute012.int.augusta.nottingham.ac.uk.152000"
"compute012.int.augusta.nottingham.ac.uk.152001"
"compute013.int.augusta.nottingham.ac.uk.185345"
"compute013.int.augusta.nottingham.ac.uk.185346"
"compute013.int.augusta.nottingham.ac.uk.185347"
"compute013.int.augusta.nottingham.ac.uk.185348"
"compute013.int.augusta.nottingham.ac.uk.185349"
"compute013.int.augusta.nottingham.ac.uk.185350"
"compute013.int.augusta.nottingham.ac.uk.185351"
"compute013.int.augusta.nottingham.ac.uk.185352"
"compute013.int.augusta.nottingham.ac.uk.185353"
"compute013.int.augusta.nottingham.ac.uk.185354"
"compute013.int.augusta.nottingham.ac.uk.185355"
"compute013.int.augusta.nottingham.ac.uk.185356"
"compute014.int.augusta.nottingham.ac.uk.13149"
"compute014.int.augusta.nottingham.ac.uk.13152"
"compute014.int.augusta.nottingham.ac.uk.13153"
"compute014.int.augusta.nottingham.ac.uk.13154"
"compute014.int.augusta.nottingham.ac.uk.13155"
"compute014.int.augusta.nottingham.ac.uk.13156"
"compute014.int.augusta.nottingham.ac.uk.13157"
"compute014.int.augusta.nottingham.ac.uk.13158"
"compute014.int.augusta.nottingham.ac.uk.13159"
"compute014.int.augusta.nottingham.ac.uk.13160"
"compute014.int.augusta.nottingham.ac.uk.13161"
"compute014.int.augusta.nottingham.ac.uk.13168"
"compute015.int.augusta.nottingham.ac.uk.262338"
"compute015.int.augusta.nottingham.ac.uk.262339"
"compute015.int.augusta.nottingham.ac.uk.262340"
"compute015.int.augusta.nottingham.ac.uk.262341"
"compute015.int.augusta.nottingham.ac.uk.262342"
"compute015.int.augusta.nottingham.ac.uk.262343"
"compute015.int.augusta.nottingham.ac.uk.262344"
"compute015.int.augusta.nottingham.ac.uk.262346"
"compute015.int.augusta.nottingham.ac.uk.262347"
"compute015.int.augusta.nottingham.ac.uk.262348"
"compute015.int.augusta.nottingham.ac.uk.262349"
"compute015.int.augusta.nottingham.ac.uk.262350"
"compute016.int.augusta.nottingham.ac.uk.240036"
"compute016.int.augusta.nottingham.ac.uk.240037"
"compute016.int.augusta.nottingham.ac.uk.240038"
"compute016.int.augusta.nottingham.ac.uk.240039"
"compute016.int.augusta.nottingham.ac.uk.240040"
"compute016.int.augusta.nottingham.ac.uk.240041"
"compute016.int.augusta.nottingham.ac.uk.240042"
"compute016.int.augusta.nottingham.ac.uk.240043"
"compute016.int.augusta.nottingham.ac.uk.240044"
"compute016.int.augusta.nottingham.ac.uk.240045"
"compute016.int.augusta.nottingham.ac.uk.240046"
"compute016.int.augusta.nottingham.ac.uk.240047"
"compute030.int.augusta.nottingham.ac.uk.206079"
"compute030.int.augusta.nottingham.ac.uk.206080"
"compute030.int.augusta.nottingham.ac.uk.206081"
"compute030.int.augusta.nottingham.ac.uk.206082"
"compute030.int.augusta.nottingham.ac.uk.206083"
"compute030.int.augusta.nottingham.ac.uk.206084"
"compute030.int.augusta.nottingham.ac.uk.206085"
"compute030.int.augusta.nottingham.ac.uk.206086"
"compute030.int.augusta.nottingham.ac.uk.206087"
"compute030.int.augusta.nottingham.ac.uk.206088"
"compute030.int.augusta.nottingham.ac.uk.206089"
"compute030.int.augusta.nottingham.ac.uk.206090"
"compute031.int.augusta.nottingham.ac.uk.171205"
"compute031.int.augusta.nottingham.ac.uk.171206"
"compute031.int.augusta.nottingham.ac.uk.171207"
"compute031.int.augusta.nottingham.ac.uk.171208"
"compute031.int.augusta.nottingham.ac.uk.171209"
"compute031.int.augusta.nottingham.ac.uk.171210"
"compute031.int.augusta.nottingham.ac.uk.171211"
"compute031.int.augusta.nottingham.ac.uk.171212"
"compute031.int.augusta.nottingham.ac.uk.171213"
"compute031.int.augusta.nottingham.ac.uk.171214"
"compute031.int.augusta.nottingham.ac.uk.171215"
"compute031.int.augusta.nottingham.ac.uk.171216"
"compute032.int.augusta.nottingham.ac.uk.195837"
"compute032.int.augusta.nottingham.ac.uk.195838"
"compute032.int.augusta.nottingham.ac.uk.195839"
"compute032.int.augusta.nottingham.ac.uk.195840"
"compute032.int.augusta.nottingham.ac.uk.195841"
"compute032.int.augusta.nottingham.ac.uk.195842"
"compute032.int.augusta.nottingham.ac.uk.195843"
"compute032.int.augusta.nottingham.ac.uk.195844"
"compute032.int.augusta.nottingham.ac.uk.195845"
"compute032.int.augusta.nottingham.ac.uk.195846"
"compute032.int.augusta.nottingham.ac.uk.195847"
"compute032.int.augusta.nottingham.ac.uk.195848"
)

Pstream initialized with:
    floatTransfer      : 0
    nProcsSimpleSum    : 0
    commsType          : nonBlocking
    polling iterations : 0
sigFpe : Enabling floating point exception trapping (FOAM_SIGFPE).
fileModificationChecking : Monitoring run-time modified files using timeStampMaster (fileModificationSkew 10)
allowSystemOperations : Allowing user-supplied system call operations

// * * * * * * * * * * * * * * * * * * * * * * * * * * * * * * * * * * * * * //
Create time

Create mesh for time = 0


SIMPLE: Convergence criteria found
        p: tolerance 1e-10
        c: tolerance 1e-10

Reading field c

Reading field U

Reading transportProperties

Reading diffusivity Dm

Reading outlet name

Reading porosity phi

Reading mechanical disp coeff alpha

Reading mechanical disp coeff alphaT

Reading controlDict

Reading/calculating face flux field q

No finite volume options present

Calculating scalar transport

Courant Number mean: 0.583838 max: 8.06066
Mean vel = (0.000273324 1.5024e-07 1.13147e-06)

Adaptive time = 9.92457
DILUPBiCGStab:  Solving for c, Initial residual = 1, Final residual = 4.87416e-11, No Iterations 7
Total mass = 3.16804
Flux out = 8.18656e-78

Adaptive time = 19.8491
DILUPBiCGStab:  Solving for c, Initial residual = 0.142138, Final residual = 3.77378e-11, No Iterations 6
Total mass = 5.32086
Flux out = 3.34488e-77

Adaptive time = 29.7737
DILUPBiCGStab:  Solving for c, Initial residual = 0.0580219, Final residual = 9.39029e-11, No Iterations 5
Total mass = 6.91886
Flux out = 1.31385e-76

Adaptive time = 39.6983
DILUPBiCGStab:  Solving for c, Initial residual = 0.0391143, Final residual = 9.68556e-11, No Iterations 5
Total mass = 8.26438
Flux out = 5.31047e-76

Adaptive time = 49.6229
DILUPBiCGStab:  Solving for c, Initial residual = 0.0295986, Final residual = 2.58638e-11, No Iterations 6
Total mass = 9.47832
Flux out = 2.21646e-75

Adaptive time = 59.5474
DILUPBiCGStab:  Solving for c, Initial residual = 0.0247737, Final residual = 2.98651e-11, No Iterations 6
Total mass = 10.6088
Flux out = 9.43715e-75

Adaptive time = 69.472
DILUPBiCGStab:  Solving for c, Initial residual = 0.0214056, Final residual = 9.2796e-11, No Iterations 5
Total mass = 11.6791
Flux out = 4.03366e-74

Adaptive time = 79.3966
DILUPBiCGStab:  Solving for c, Initial residual = 0.0189084, Final residual = 8.99773e-11, No Iterations 6
Total mass = 12.7031
Flux out = 1.71184e-73

Adaptive time = 89.3212
DILUPBiCGStab:  Solving for c, Initial residual = 0.0169828, Final residual = 7.1056e-11, No Iterations 6
Total mass = 13.6899
Flux out = 7.18457e-73

Adaptive time = 99.2457
DILUPBiCGStab:  Solving for c, Initial residual = 0.0154505, Final residual = 8.85056e-11, No Iterations 6
Total mass = 14.6461
Flux out = 2.98344e-72

Adaptive time = 109.17
DILUPBiCGStab:  Solving for c, Initial residual = 0.0141995, Final residual = 8.96842e-11, No Iterations 6
Total mass = 15.5765
Flux out = 1.22811e-71

Adaptive time = 119.095
DILUPBiCGStab:  Solving for c, Initial residual = 0.0131571, Final residual = 8.87379e-11, No Iterations 6
Total mass = 16.4849
Flux out = 5.01938e-71

Adaptive time = 129.019
DILUPBiCGStab:  Solving for c, Initial residual = 0.0122738, Final residual = 9.80869e-11, No Iterations 6
Total mass = 17.3741
Flux out = 2.03855e-70

Adaptive time = 138.944
DILUPBiCGStab:  Solving for c, Initial residual = 0.0115149, Final residual = 5.98621e-11, No Iterations 6
Total mass = 18.2467
Flux out = 8.23004e-70

Adaptive time = 148.869
DILUPBiCGStab:  Solving for c, Initial residual = 0.0108552, Final residual = 7.69149e-11, No Iterations 6
Total mass = 19.1044
Flux out = 3.30363e-69

Adaptive time = 158.793
DILUPBiCGStab:  Solving for c, Initial residual = 0.0102759, Final residual = 9.77216e-11, No Iterations 6
Total mass = 19.9489
Flux out = 1.31891e-68

Adaptive time = 168.718
DILUPBiCGStab:  Solving for c, Initial residual = 0.00976258, Final residual = 3.08133e-11, No Iterations 7
Total mass = 20.7816
Flux out = 5.23872e-68

Adaptive time = 178.642
DILUPBiCGStab:  Solving for c, Initial residual = 0.0093043, Final residual = 3.49679e-11, No Iterations 7
Total mass = 21.6036
Flux out = 2.07105e-67

Adaptive time = 188.567
DILUPBiCGStab:  Solving for c, Initial residual = 0.00889252, Final residual = 4.14989e-11, No Iterations 7
Total mass = 22.4159
Flux out = 8.15187e-67

Adaptive time = 198.491
DILUPBiCGStab:  Solving for c, Initial residual = 0.00852023, Final residual = 4.74264e-11, No Iterations 7
Total mass = 23.2194
Flux out = 3.19555e-66

Adaptive time = 208.416
DILUPBiCGStab:  Solving for c, Initial residual = 0.00818176, Final residual = 5.08226e-11, No Iterations 7
Total mass = 24.0147
Flux out = 1.24781e-65

Adaptive time = 218.341
DILUPBiCGStab:  Solving for c, Initial residual = 0.00787265, Final residual = 5.17414e-11, No Iterations 7
Total mass = 24.8026
Flux out = 4.85451e-65

Adaptive time = 228.265
DILUPBiCGStab:  Solving for c, Initial residual = 0.00758906, Final residual = 5.13174e-11, No Iterations 7
Total mass = 25.5837
Flux out = 1.88192e-64

Adaptive time = 238.19
DILUPBiCGStab:  Solving for c, Initial residual = 0.00732782, Final residual = 5.09056e-11, No Iterations 7
Total mass = 26.3583
Flux out = 7.27075e-64

Adaptive time = 248.114
DILUPBiCGStab:  Solving for c, Initial residual = 0.0070864, Final residual = 5.1043e-11, No Iterations 7
Total mass = 27.127
Flux out = 2.79981e-63

Adaptive time = 258.039
DILUPBiCGStab:  Solving for c, Initial residual = 0.0068625, Final residual = 5.15324e-11, No Iterations 7
Total mass = 27.8903
Flux out = 1.0747e-62

Adaptive time = 267.963
DILUPBiCGStab:  Solving for c, Initial residual = 0.00665423, Final residual = 5.30157e-11, No Iterations 7
Total mass = 28.6484
Flux out = 4.11227e-62

Adaptive time = 277.888
DILUPBiCGStab:  Solving for c, Initial residual = 0.00645994, Final residual = 5.62811e-11, No Iterations 7
Total mass = 29.4017
Flux out = 1.56857e-61

Adaptive time = 287.813
DILUPBiCGStab:  Solving for c, Initial residual = 0.00627821, Final residual = 6.1443e-11, No Iterations 7
Total mass = 30.1505
Flux out = 5.96384e-61

Adaptive time = 297.737
DILUPBiCGStab:  Solving for c, Initial residual = 0.00610787, Final residual = 6.82177e-11, No Iterations 7
Total mass = 30.895
Flux out = 2.25985e-60

Adaptive time = 307.662
DILUPBiCGStab:  Solving for c, Initial residual = 0.00594777, Final residual = 7.59733e-11, No Iterations 7
Total mass = 31.6356
Flux out = 8.5323e-60

Adaptive time = 317.586
DILUPBiCGStab:  Solving for c, Initial residual = 0.00579705, Final residual = 8.38372e-11, No Iterations 7
Total mass = 32.3725
Flux out = 3.20879e-59

Adaptive time = 327.511
DILUPBiCGStab:  Solving for c, Initial residual = 0.00565484, Final residual = 9.09579e-11, No Iterations 7
Total mass = 33.1058
Flux out = 1.2015e-58

Adaptive time = 337.435
DILUPBiCGStab:  Solving for c, Initial residual = 0.00552045, Final residual = 9.67374e-11, No Iterations 7
Total mass = 33.8357
Flux out = 4.47712e-58

Adaptive time = 347.36
DILUPBiCGStab:  Solving for c, Initial residual = 0.0053932, Final residual = 7.46848e-11, No Iterations 7
Total mass = 34.5625
Flux out = 1.65925e-57

Adaptive time = 357.285
DILUPBiCGStab:  Solving for c, Initial residual = 0.00527253, Final residual = 7.65735e-11, No Iterations 7
Total mass = 35.2863
Flux out = 6.11205e-57

Adaptive time = 367.209
DILUPBiCGStab:  Solving for c, Initial residual = 0.00515792, Final residual = 7.78899e-11, No Iterations 7
Total mass = 36.0072
Flux out = 2.23629e-56

Adaptive time = 377.134
DILUPBiCGStab:  Solving for c, Initial residual = 0.0050489, Final residual = 7.87969e-11, No Iterations 7
Total mass = 36.7255
Flux out = 8.12139e-56

Adaptive time = 387.058
DILUPBiCGStab:  Solving for c, Initial residual = 0.00494507, Final residual = 7.9458e-11, No Iterations 7
Total mass = 37.4411
Flux out = 2.92541e-55

Adaptive time = 396.983
DILUPBiCGStab:  Solving for c, Initial residual = 0.00484605, Final residual = 8.00194e-11, No Iterations 7
Total mass = 38.1543
Flux out = 1.04447e-54

Adaptive time = 406.908
DILUPBiCGStab:  Solving for c, Initial residual = 0.00475149, Final residual = 9.82673e-11, No Iterations 7
Total mass = 38.8652
Flux out = 3.6938e-54

Adaptive time = 416.832
DILUPBiCGStab:  Solving for c, Initial residual = 0.00466112, Final residual = 9.63692e-11, No Iterations 7
Total mass = 39.5738
Flux out = 1.29315e-53

Adaptive time = 426.757
DILUPBiCGStab:  Solving for c, Initial residual = 0.00457462, Final residual = 7.47054e-11, No Iterations 7
Total mass = 40.2803
Flux out = 4.479e-53

Adaptive time = 436.681
DILUPBiCGStab:  Solving for c, Initial residual = 0.00449175, Final residual = 1.34531e-11, No Iterations 8
Total mass = 40.9847
Flux out = 1.53409e-52

Adaptive time = 446.606
DILUPBiCGStab:  Solving for c, Initial residual = 0.00441229, Final residual = 3.51484e-11, No Iterations 7
Total mass = 41.6872
Flux out = 5.19354e-52

Adaptive time = 456.53
DILUPBiCGStab:  Solving for c, Initial residual = 0.004336, Final residual = 8.85237e-11, No Iterations 7
Total mass = 42.3879
Flux out = 1.73723e-51

Adaptive time = 466.455
DILUPBiCGStab:  Solving for c, Initial residual = 0.00426271, Final residual = 6.94251e-11, No Iterations 7
Total mass = 43.0867
Flux out = 5.73978e-51

Adaptive time = 476.38
DILUPBiCGStab:  Solving for c, Initial residual = 0.00419224, Final residual = 4.26386e-11, No Iterations 8
Total mass = 43.7838
Flux out = 1.87268e-50

Adaptive time = 486.304
DILUPBiCGStab:  Solving for c, Initial residual = 0.00412441, Final residual = 4.63899e-11, No Iterations 8
Total mass = 44.4793
Flux out = 6.03213e-50

Adaptive time = 496.229
DILUPBiCGStab:  Solving for c, Initial residual = 0.00405908, Final residual = 3.43709e-11, No Iterations 8
Total mass = 45.1732
Flux out = 1.91801e-49

Adaptive time = 506.153
DILUPBiCGStab:  Solving for c, Initial residual = 0.0039961, Final residual = 9.34931e-11, No Iterations 7
Total mass = 45.8656
Flux out = 6.01945e-49

Adaptive time = 516.078
DILUPBiCGStab:  Solving for c, Initial residual = 0.00393535, Final residual = 7.50502e-11, No Iterations 7
Total mass = 46.5565
Flux out = 1.86447e-48

Adaptive time = 526.002
DILUPBiCGStab:  Solving for c, Initial residual = 0.00387671, Final residual = 6.42497e-11, No Iterations 7
Total mass = 47.246
Flux out = 5.69944e-48

Adaptive time = 535.927
DILUPBiCGStab:  Solving for c, Initial residual = 0.00382006, Final residual = 5.72258e-11, No Iterations 7
Total mass = 47.9342
Flux out = 1.71943e-47

Adaptive time = 545.852
DILUPBiCGStab:  Solving for c, Initial residual = 0.0037653, Final residual = 5.14375e-11, No Iterations 7
Total mass = 48.621
Flux out = 5.11941e-47

Adaptive time = 555.776
DILUPBiCGStab:  Solving for c, Initial residual = 0.00371233, Final residual = 4.58712e-11, No Iterations 7
Total mass = 49.3066
Flux out = 1.50439e-46

Adaptive time = 565.701
DILUPBiCGStab:  Solving for c, Initial residual = 0.00366106, Final residual = 4.10066e-11, No Iterations 7
Total mass = 49.991
Flux out = 4.36347e-46

Adaptive time = 575.625
DILUPBiCGStab:  Solving for c, Initial residual = 0.00361142, Final residual = 3.6341e-11, No Iterations 7
Total mass = 50.6742
Flux out = 1.24932e-45

Adaptive time = 585.55
DILUPBiCGStab:  Solving for c, Initial residual = 0.00356331, Final residual = 2.99841e-11, No Iterations 7
Total mass = 51.3563
Flux out = 3.53119e-45

Adaptive time = 595.474
DILUPBiCGStab:  Solving for c, Initial residual = 0.00351668, Final residual = 2.24103e-11, No Iterations 7
Total mass = 52.0372
Flux out = 9.8543e-45

Adaptive time = 605.399
DILUPBiCGStab:  Solving for c, Initial residual = 0.00347144, Final residual = 1.98008e-11, No Iterations 7
Total mass = 52.7172
Flux out = 2.71543e-44

Adaptive time = 615.324
DILUPBiCGStab:  Solving for c, Initial residual = 0.00342754, Final residual = 3.39406e-11, No Iterations 7
Total mass = 53.3961
Flux out = 7.38945e-44

Adaptive time = 625.248
DILUPBiCGStab:  Solving for c, Initial residual = 0.00338491, Final residual = 8.85149e-11, No Iterations 7
Total mass = 54.074
Flux out = 1.98612e-43

Adaptive time = 635.173
DILUPBiCGStab:  Solving for c, Initial residual = 0.00334349, Final residual = 7.88972e-12, No Iterations 8
Total mass = 54.751
Flux out = 5.27326e-43

Adaptive time = 645.097
DILUPBiCGStab:  Solving for c, Initial residual = 0.00330325, Final residual = 5.67093e-12, No Iterations 8
Total mass = 55.427
Flux out = 1.38323e-42

Adaptive time = 655.022
DILUPBiCGStab:  Solving for c, Initial residual = 0.00326412, Final residual = 9.56417e-12, No Iterations 8
Total mass = 56.1022
Flux out = 3.5852e-42

Adaptive time = 664.946
DILUPBiCGStab:  Solving for c, Initial residual = 0.00322605, Final residual = 1.37719e-11, No Iterations 8
Total mass = 56.7765
Flux out = 9.18339e-42

Adaptive time = 674.871
DILUPBiCGStab:  Solving for c, Initial residual = 0.00318901, Final residual = 1.70371e-11, No Iterations 8
Total mass = 57.45
Flux out = 2.32502e-41

Adaptive time = 684.796
DILUPBiCGStab:  Solving for c, Initial residual = 0.00315295, Final residual = 1.93169e-11, No Iterations 8
Total mass = 58.1226
Flux out = 5.81905e-41

Adaptive time = 694.72
DILUPBiCGStab:  Solving for c, Initial residual = 0.00311782, Final residual = 2.07836e-11, No Iterations 8
Total mass = 58.7945
Flux out = 1.43993e-40

Adaptive time = 704.645
DILUPBiCGStab:  Solving for c, Initial residual = 0.00308361, Final residual = 2.16613e-11, No Iterations 8
Total mass = 59.4656
Flux out = 3.52343e-40

Adaptive time = 714.569
DILUPBiCGStab:  Solving for c, Initial residual = 0.00305025, Final residual = 2.21569e-11, No Iterations 8
Total mass = 60.1359
Flux out = 8.52681e-40

Adaptive time = 724.494
DILUPBiCGStab:  Solving for c, Initial residual = 0.00301773, Final residual = 2.24353e-11, No Iterations 8
Total mass = 60.8056
Flux out = 2.04114e-39

Adaptive time = 734.418
DILUPBiCGStab:  Solving for c, Initial residual = 0.00298602, Final residual = 2.25424e-11, No Iterations 8
Total mass = 61.4745
Flux out = 4.83378e-39

Adaptive time = 744.343
DILUPBiCGStab:  Solving for c, Initial residual = 0.00295507, Final residual = 2.25099e-11, No Iterations 8
Total mass = 62.1428
Flux out = 1.13265e-38

Adaptive time = 754.268
DILUPBiCGStab:  Solving for c, Initial residual = 0.00292487, Final residual = 2.23798e-11, No Iterations 8
Total mass = 62.8104
Flux out = 2.62641e-38

Adaptive time = 764.192
DILUPBiCGStab:  Solving for c, Initial residual = 0.00289538, Final residual = 2.21814e-11, No Iterations 8
Total mass = 63.4773
Flux out = 6.0277e-38

Adaptive time = 774.117
DILUPBiCGStab:  Solving for c, Initial residual = 0.00286659, Final residual = 2.19377e-11, No Iterations 8
Total mass = 64.1437
Flux out = 1.36939e-37

Adaptive time = 784.041
DILUPBiCGStab:  Solving for c, Initial residual = 0.00283845, Final residual = 2.16563e-11, No Iterations 8
Total mass = 64.8094
Flux out = 3.07998e-37

Adaptive time = 793.966
DILUPBiCGStab:  Solving for c, Initial residual = 0.00281097, Final residual = 2.13436e-11, No Iterations 8
Total mass = 65.4745
Flux out = 6.85929e-37

Adaptive time = 803.89
DILUPBiCGStab:  Solving for c, Initial residual = 0.00278409, Final residual = 2.10074e-11, No Iterations 8
Total mass = 66.1391
Flux out = 1.5128e-36

Adaptive time = 813.815
DILUPBiCGStab:  Solving for c, Initial residual = 0.00275782, Final residual = 2.06554e-11, No Iterations 8
Total mass = 66.8031
Flux out = 3.30455e-36

Adaptive time = 823.74
DILUPBiCGStab:  Solving for c, Initial residual = 0.00273212, Final residual = 2.02936e-11, No Iterations 8
Total mass = 67.4666
Flux out = 7.15045e-36

Adaptive time = 833.664
DILUPBiCGStab:  Solving for c, Initial residual = 0.00270698, Final residual = 1.99273e-11, No Iterations 8
Total mass = 68.1296
Flux out = 1.53286e-35

Adaptive time = 843.589
DILUPBiCGStab:  Solving for c, Initial residual = 0.00268238, Final residual = 1.95613e-11, No Iterations 8
Total mass = 68.792
Flux out = 3.25594e-35

Adaptive time = 853.513
DILUPBiCGStab:  Solving for c, Initial residual = 0.0026583, Final residual = 9.89917e-11, No Iterations 7
Total mass = 69.4539
Flux out = 6.85349e-35

Adaptive time = 863.438
DILUPBiCGStab:  Solving for c, Initial residual = 0.00263473, Final residual = 9.95765e-11, No Iterations 7
Total mass = 70.1154
Flux out = 1.42977e-34

Adaptive time = 873.362
DILUPBiCGStab:  Solving for c, Initial residual = 0.00261164, Final residual = 9.78284e-11, No Iterations 7
Total mass = 70.7764
Flux out = 2.9566e-34

Adaptive time = 883.287
DILUPBiCGStab:  Solving for c, Initial residual = 0.00258903, Final residual = 9.62036e-11, No Iterations 7
Total mass = 71.4369
Flux out = 6.06102e-34

Adaptive time = 893.212
DILUPBiCGStab:  Solving for c, Initial residual = 0.00256688, Final residual = 9.46917e-11, No Iterations 7
Total mass = 72.0969
Flux out = 1.23191e-33

Adaptive time = 903.136
DILUPBiCGStab:  Solving for c, Initial residual = 0.00254517, Final residual = 9.32851e-11, No Iterations 7
Total mass = 72.7565
Flux out = 2.48283e-33

Adaptive time = 913.061
DILUPBiCGStab:  Solving for c, Initial residual = 0.00252389, Final residual = 9.19787e-11, No Iterations 7
Total mass = 73.4157
Flux out = 4.96247e-33

Adaptive time = 922.985
DILUPBiCGStab:  Solving for c, Initial residual = 0.00250303, Final residual = 9.07639e-11, No Iterations 7
Total mass = 74.0745
Flux out = 9.83751e-33

Adaptive time = 932.91
DILUPBiCGStab:  Solving for c, Initial residual = 0.00248257, Final residual = 8.96342e-11, No Iterations 7
Total mass = 74.7329
Flux out = 1.93445e-32

Adaptive time = 942.834
DILUPBiCGStab:  Solving for c, Initial residual = 0.00246251, Final residual = 8.85843e-11, No Iterations 7
Total mass = 75.3908
Flux out = 3.77368e-32

Adaptive time = 952.759
DILUPBiCGStab:  Solving for c, Initial residual = 0.00244282, Final residual = 8.76081e-11, No Iterations 7
Total mass = 76.0484
Flux out = 7.30391e-32

Adaptive time = 962.684
DILUPBiCGStab:  Solving for c, Initial residual = 0.00242351, Final residual = 8.67015e-11, No Iterations 7
Total mass = 76.7056
Flux out = 1.40274e-31

Adaptive time = 972.608
DILUPBiCGStab:  Solving for c, Initial residual = 0.00240456, Final residual = 8.58588e-11, No Iterations 7
Total mass = 77.3624
Flux out = 2.67348e-31

Adaptive time = 982.533
DILUPBiCGStab:  Solving for c, Initial residual = 0.00238596, Final residual = 8.50763e-11, No Iterations 7
Total mass = 78.0189
Flux out = 5.05709e-31

Adaptive time = 992.457
DILUPBiCGStab:  Solving for c, Initial residual = 0.0023677, Final residual = 8.43505e-11, No Iterations 7
Total mass = 78.675
Flux out = 9.49499e-31

Adaptive time = 1002.38
DILUPBiCGStab:  Solving for c, Initial residual = 0.00234976, Final residual = 8.36769e-11, No Iterations 7
Total mass = 79.3307
Flux out = 1.76971e-30

Adaptive time = 1012.31
DILUPBiCGStab:  Solving for c, Initial residual = 0.00233215, Final residual = 8.30522e-11, No Iterations 7
Total mass = 79.9861
Flux out = 3.27468e-30

Adaptive time = 1022.23
DILUPBiCGStab:  Solving for c, Initial residual = 0.00231485, Final residual = 8.24745e-11, No Iterations 7
Total mass = 80.6412
Flux out = 6.01641e-30

Adaptive time = 1032.16
DILUPBiCGStab:  Solving for c, Initial residual = 0.00229786, Final residual = 8.19407e-11, No Iterations 7
Total mass = 81.296
Flux out = 1.09762e-29

Adaptive time = 1042.08
DILUPBiCGStab:  Solving for c, Initial residual = 0.00228116, Final residual = 8.14487e-11, No Iterations 7
Total mass = 81.9504
Flux out = 1.98861e-29

Adaptive time = 1052
DILUPBiCGStab:  Solving for c, Initial residual = 0.00226475, Final residual = 8.09952e-11, No Iterations 7
Total mass = 82.6046
Flux out = 3.57831e-29

Adaptive time = 1061.93
DILUPBiCGStab:  Solving for c, Initial residual = 0.00224862, Final residual = 8.05767e-11, No Iterations 7
Total mass = 83.2584
Flux out = 6.3955e-29

Adaptive time = 1071.85
DILUPBiCGStab:  Solving for c, Initial residual = 0.00223276, Final residual = 8.01906e-11, No Iterations 7
Total mass = 83.912
Flux out = 1.13548e-28

Adaptive time = 1081.78
DILUPBiCGStab:  Solving for c, Initial residual = 0.00221717, Final residual = 7.98339e-11, No Iterations 7
Total mass = 84.5652
Flux out = 2.00278e-28

Adaptive time = 1091.7
DILUPBiCGStab:  Solving for c, Initial residual = 0.00220184, Final residual = 7.95036e-11, No Iterations 7
Total mass = 85.2182
Flux out = 3.50972e-28

Adaptive time = 1101.63
DILUPBiCGStab:  Solving for c, Initial residual = 0.00218676, Final residual = 7.91966e-11, No Iterations 7
Total mass = 85.8709
Flux out = 6.11135e-28

Adaptive time = 1111.55
DILUPBiCGStab:  Solving for c, Initial residual = 0.00217193, Final residual = 7.89096e-11, No Iterations 7
Total mass = 86.5233
Flux out = 1.05746e-27

Adaptive time = 1121.48
DILUPBiCGStab:  Solving for c, Initial residual = 0.00215733, Final residual = 7.86394e-11, No Iterations 7
Total mass = 87.1755
Flux out = 1.81841e-27

Adaptive time = 1131.4
DILUPBiCGStab:  Solving for c, Initial residual = 0.00214298, Final residual = 7.83829e-11, No Iterations 7
Total mass = 87.8274
Flux out = 3.10782e-27

Adaptive time = 1141.33
DILUPBiCGStab:  Solving for c, Initial residual = 0.00212885, Final residual = 7.81367e-11, No Iterations 7
Total mass = 88.479
Flux out = 5.27949e-27

Adaptive time = 1151.25
DILUPBiCGStab:  Solving for c, Initial residual = 0.00211494, Final residual = 7.78978e-11, No Iterations 7
Total mass = 89.1304
Flux out = 8.91529e-27

Adaptive time = 1161.18
DILUPBiCGStab:  Solving for c, Initial residual = 0.00210125, Final residual = 7.7663e-11, No Iterations 7
Total mass = 89.7816
Flux out = 1.49665e-26

Adaptive time = 1171.1
DILUPBiCGStab:  Solving for c, Initial residual = 0.00208777, Final residual = 7.74295e-11, No Iterations 7
Total mass = 90.4325
Flux out = 2.49795e-26

Adaptive time = 1181.02
DILUPBiCGStab:  Solving for c, Initial residual = 0.00207451, Final residual = 7.71946e-11, No Iterations 7
Total mass = 91.0832
Flux out = 4.1453e-26

Adaptive time = 1190.95
DILUPBiCGStab:  Solving for c, Initial residual = 0.00206144, Final residual = 7.69555e-11, No Iterations 7
Total mass = 91.7336
Flux out = 6.84026e-26

Adaptive time = 1200.87
[...]
[70] 
[83] 
[83] 
[83] --> FOAM FATAL ERROR: 
[83] Concentration under the threshold
[83] 
[83] 
[83]     From function macroScalarTransport
[83]     in file macroScalarTransport.C at line 118.
[83] 
FOAM parallel run exiting
[83] 
[85] 
[85] 
[85] --> FOAM FATAL ERROR: 
[85] Concentration under the threshold
[85] 
[85] 
[85]     From function macroScalarTransport
[85]     in file macroScalarTransport.C at line 118.
[85] 
FOAM parallel run exiting
[85] 

[56] 
[56] --> FOAM FATAL ERROR: 
[56] Concentration under the threshold
[56] 
[56] 
[56]     From function 
[57] 
[57] --> FOAM FATAL ERROR: 
[57] Concentration under the threshold
[57] 
[57] 
[57]     From function macroScalarTransport
[57]     in file macroScalarTransport.C at line 118.
[57] [82] macroScalarTransport
[56]     in file macroScalarTransport.C at line 118.
[56] 
FOAM parallel run exiting
[56] 

[82] 
[82] --> FOAM FATAL ERROR: 
[82] Concentration under the threshold
[82] 
[82] 

FOAM parallel run exiting
[57] 

[58] 
[58] --> FOAM FATAL ERROR: 
[58] Concentration under the threshold
[58] 
[58] 
[60] 
[82]     From function macroScalarTransport
[82]     in file macroScalarTransport.C at line 118.[58]     From function macroScalarTransport
[58]     in file macroScalarTransport.C at line 118.
[58] 
FOAM parallel run exiting
[58] 
[60] 
[60] --> FOAM FATAL ERROR: 
[60] Concentration under the threshold
[60] 
[60] 
[60]     From function macroScalarTransport
[60]     in file macroScalarTransport.C at line 118.
[60] 
FOAM parallel run exiting
[60] 

[82] 
FOAM parallel run exiting
[82] 
[48] [49] 
[49] 
[49] --> FOAM FATAL ERROR: 
[49] Concentration under the threshold
[49] 
[49] 
[49] 
[48] 
[48] --> FOAM FATAL ERROR: 
[48] Concentration under the threshold
[48] 
[48] 
[48]     From function macroScalarTransport
[48]     in file macroScalarTransport.C at line 118.
[48] 
FOAM parallel run exiting
[48] 
    From function macroScalarTransport
[49]     in file macroScalarTransport.C at line 118.
[49] 
FOAM parallel run exiting
[49] 
[24] 
[24] 
[24] --> FOAM FATAL ERROR: 
[24] Concentration under the threshold
[24] 
[24] 
[24]     From function macroScalarTransport
[24]     in file macroScalarTransport.C at line 118.
[24] 
FOAM parallel run exiting
[24] 
[77] [59] 
[77] 
[77] --> FOAM FATAL ERROR: 
[77] Concentration under the threshold

[59] 
[59] --> FOAM FATAL ERROR: 
[59] [77] 
[77] 
[77]     From function macroScalarTransport
[77]     in file macroScalarTransport.C at line 118.
[77] 
FOAM parallel run exiting
[77] 
[29] Concentration under the threshold
[59] 
[59] 
[59]     From function macroScalarTransport
[59]     in file macroScalarTransport.C at line 118.
[59] 
FOAM parallel run exiting
[59] [78] 

[78] 
[78] --> FOAM FATAL ERROR: 
[78] 
[29] 
[29] --> FOAM FATAL ERROR: 
Concentration under the threshold
[78] 
[78] 
[78]     From function macroScalarTransport
[78]     in file macroScalarTransport.C at line 118[29] Concentration under the threshold
[29] 
[29] 
[29]     From function macroScalarTransport
[29] .
[78] 
FOAM parallel run exiting
[78] 
    in file macroScalarTransport.C at line 118.
[29] 
FOAM parallel run exiting
[29] 
[33] [52] 
[33] 
[33] --> FOAM FATAL ERROR: 

[52] 
[52] --> FOAM FATAL ERROR: 
[52] Concentration under the threshold
[52] 
[52] 
[52]     From function macroScalarTransport
[52]     in file macroScalarTransport.C at line 118.
[52] 
FOAM parallel run exiting
[52] 
[33] Concentration under the threshold
[33] 
[33] 
[33]     From function macroScalarTransport
[33]     in file macroScalarTransport.C at line 118.
[33] 
FOAM parallel run exiting
[33] 
[31] 
[31] 
[31] --> FOAM FATAL ERROR: 
[31] Concentration under the threshold
[31] 
[31] 
[31]     From function macroScalarTransport
[31]     in file macroScalarTransport.C at line 118.
[31] 
FOAM parallel run exiting
[31] 
[63] 
[76] [35] [63] 
[63] --> FOAM FATAL ERROR: 
[63] Concentration under the threshold
[63] 
[63] 
[63]     From function macroScalarTransport
[63]     in file macroScalarTransport.C at line 118.
[63] 
FOAM parallel run exiting
[63] 

[76] 
[76] --> FOAM FATAL ERROR: 
[76] Concentration under the threshold
[76] 
[76] 

[35] 
[35] --> FOAM FATAL ERROR: 
[61] 
[61] 
[61] --> FOAM FATAL ERROR: 
[61] Concentration under the threshold
[61] 
[61] 
[61]     From function macroScalarTransport
[61]     in file macroScalarTransport.C at line [76]     From function macroScalarTransport
[76]     in file macroScalarTransport.C at line 118.118.
[61] 
FOAM parallel run exiting
[61] 

[76] 
FOAM parallel run exiting
[76] 
[75] [35] Concentration under the threshold
[35] 
[35] 
[35]     From function macroScalarTransport
[35] [54] 
[75] 
[75] --> FOAM FATAL ERROR: 
[75] Concentration under the threshold
    in file macroScalarTransport.C at line 118.
[35] 
FOAM parallel run exiting
[35] 

[54] 
[54] --> FOAM FATAL ERROR: 
[54] Concentration under the threshold
[75] 
[75] 
[75]     From function macroScalarTransport
[75]     in file macroScalarTransport.C at line 118.
[75] [54] 
[54] 
[54]     From function macroScalarTransport
[54]     in file macroScalarTransport.C at line 118.
[54] 
FOAM parallel run exiting
[54] 

FOAM parallel run exiting
[75] 
[50] 
[50] 
[50] --> FOAM FATAL ERROR: 
[50] Concentration under the threshold
[50] 
[50] 
[50] [28]     From function macroScalarTransport
[50]     in file macroScalarTransport.C at line 118.
[50] 
[28] 

FOAM parallel run exiting
[50] 
[28] --> FOAM FATAL ERROR: 
[28] Concentration under the threshold
[28] 
[28] 
[28]     From function macroScalarTransport
[28]     in file macroScalarTransport.C at line 118.
[28] 
FOAM parallel run exiting
[28] 
[26] [30] 
[26] 
[26] --> FOAM FATAL ERROR: 
[62] 
[30] 
[30] --> FOAM FATAL ERROR: 
[30] Concentration under the threshold
[30] 
[30] 
[30]     From function macroScalarTransport
[30]     in file macroScalarTransport.C at line 118.
[30] 
FOAM parallel run exiting
[30] 

[62] 
[62] --> FOAM FATAL ERROR: 
[62] Concentration under the threshold
[62] 
[62] 
[62]     From function macroScalarTransport
[62]     in file macroScalarTransport.C at line 118.
[62] 
FOAM parallel run exiting
[62] [26] Concentration under the threshold
[26] 
[26] 
[26]     From function macroScalarTransport
[26]     in file macroScalarTransport.C at line 118.
[26] 
FOAM parallel run exiting
[26] 
[53] 

[53] 
[53] --> FOAM FATAL ERROR: 
[53] Concentration under the threshold
[53] 
[53] 
[53]     From function macroScalarTransport
[53]     in file macroScalarTransport.C at line 118.
[53] 
FOAM parallel run exiting
[53] 
--------------------------------------------------------------------------
MPI_ABORT was invoked on rank 72 in communicator MPI COMMUNICATOR 3 SPLIT FROM 0
with errorcode 1.

NOTE: invoking MPI_ABORT causes Open MPI to kill all MPI processes.
You may or may not see output from other processes, depending on
exactly when Open MPI kills them.
--------------------------------------------------------------------------

[5] 
[5] --> FOAM FATAL ERROR: 
[5] Concentration under the threshold
[5] 
[5] 
[5]     From function macroScalarTransport
[5]     in file macroScalarTransport.C at line 118.
[5] 
FOAM parallel run exiting
[5] 

[8] 
[8] --> FOAM FATAL ERROR: 
[8] Concentration under the threshold
[8] 
[8] 
[8]     From function macroScalarTransport
[8]     in file macroScalarTransport.C at line 118.
[8] 
FOAM parallel run exiting
[8] 

[1] 
[1] --> FOAM FATAL ERROR: 
[1] Concentration under the threshold
[1] 
[1] 
[1]     From function macroScalarTransport
[1]     in file macroScalarTransport.C at line 118.
[1] 
FOAM parallel run exiting
[1] 

[10] 
[10] --> FOAM FATAL ERROR: 
[10] Concentration under the threshold
[10] 
[10] 
[10]     From function macroScalarTransport
[10]     in file macroScalarTransport.C at line 118.
[10] 
FOAM parallel run exiting
[10] 

[2] 
[2] --> FOAM FATAL ERROR: 
[2] Concentration under the threshold
[2] 
[2] 
[2]     From function macroScalarTransport
[2]     in file macroScalarTransport.C at line 118.
[2] 
FOAM parallel run exiting
[2] 

[3] 
[3] --> FOAM FATAL ERROR: 
[3] Concentration under the threshold
[3] 
[3] 
[3]     From function macroScalarTransport
[3]     in file macroScalarTransport.C at line 118.
[3] 
FOAM parallel run exiting
[3] 

[7] 
[7] --> FOAM FATAL ERROR: 
[7] Concentration under the threshold
[7] 
[7] 
[7]     From function macroScalarTransport
[7]     in file macroScalarTransport.C at line 118.
[7] 
FOAM parallel run exiting
[7] 

[4] 
[4] --> FOAM FATAL ERROR: 
[4] Concentration under the threshold
[4] 
[4] 
[4]     From function macroScalarTransport
[4]     in file macroScalarTransport.C at line 118.
[4] 
FOAM parallel run exiting
[4] 

[11] 
[11] --> FOAM FATAL ERROR: 
[11] Concentration under the threshold
[11] 
[11] 
[11]     From function macroScalarTransport
[11]     in file macroScalarTransport.C at line 118.
[11] 
FOAM parallel run exiting
[11] 
[34] [15] 
[15] 
[15] --> FOAM FATAL ERROR: 
[15] Concentration under the threshold
[15] 
[15] 
[15]     From function macroScalarTransport
[15]     in file macroScalarTransport.C at line 118.
[15] 
FOAM parallel run exiting
[15] 

[34] 
[34] [16] 
[16] 
[16] --> FOAM FATAL ERROR: 
[16] Concentration under the threshold
[16] 
[16] 
[16]     From function macroScalarTransport
[16]     in file macroScalarTransport.C at line 118.
[16] 
FOAM parallel run exiting
[16] 
--> FOAM FATAL ERROR: 
[34] Concentration under the threshold
[34] 
[34] 
[34]     From function macroScalarTransport
[17] 
[17] 
[17] --> FOAM FATAL ERROR: 
[17] Concentration under the threshold
[17] 
[17] 
[17]     From function macroScalarTransport
[17]     in file macroScalarTransport.C at line 118.
[17] 
FOAM parallel run exiting
[17] 
[34]     in file macroScalarTransport.C at line 118.
[34] 
FOAM parallel run exiting
[34] 
[14] 
[14] 
[14] --> FOAM FATAL ERROR: 
[14] Concentration under the threshold
[14] 
[14] 
[14]     From function macroScalarTransport
[14]     in file macroScalarTransport.C at line 118.
[14] 
FOAM parallel run exiting
[14] 
[27] [18] 
[18] 
[18] --> FOAM FATAL ERROR: 
[18] Concentration under the threshold
[18] 
[18] 
[18]     From function macroScalarTransport
[18]     in file macroScalarTransport.C at line 118.
[18] 
FOAM parallel run exiting
[18] 

[27] 
[27] --> FOAM FATAL ERROR: 
[27] Concentration under the threshold
[27] 
[19] 
[19] 
[19] --> FOAM FATAL ERROR: 
[19] Concentration under the threshold
[19] 
[19] 
[19]     From function macroScalarTransport
[19]     in file macroScalarTransport.C at line 118.
[19] 
FOAM parallel run exiting
[19] 
[compute012.int.augusta.nottingham.ac.uk:151973] PMIX ERROR: UNREACHABLE in file server/pmix_server.c at line 2193
[compute012.int.augusta.nottingham.ac.uk:151973] PMIX ERROR: UNREACHABLE in file server/pmix_server.c at line 2193
[compute012.int.augusta.nottingham.ac.uk:151973] PMIX ERROR: UNREACHABLE in file server/pmix_server.c at line 2193
[compute012.int.augusta.nottingham.ac.uk:151973] PMIX ERROR: UNREACHABLE in file server/pmix_server.c at line 2193
[compute012.int.augusta.nottingham.ac.uk:151973] PMIX ERROR: UNREACHABLE in file server/pmix_server.c at line 2193
[compute012.int.augusta.nottingham.ac.uk:151973] PMIX ERROR: UNREACHABLE in file server/pmix_server.c at line 2193
[compute012.int.augusta.nottingham.ac.uk:151973] PMIX ERROR: UNREACHABLE in file server/pmix_server.c at line 2193
[compute012.int.augusta.nottingham.ac.uk:151973] PMIX ERROR: UNREACHABLE in file server/pmix_server.c at line 2193
[compute012.int.augusta.nottingham.ac.uk:151973] PMIX ERROR: UNREACHABLE in file server/pmix_server.c at line 2193
[compute012.int.augusta.nottingham.ac.uk:151973] PMIX ERROR: UNREACHABLE in file server/pmix_server.c at line 2193
[compute012.int.augusta.nottingham.ac.uk:151973] PMIX ERROR: UNREACHABLE in file server/pmix_server.c at line 2193
[compute012.int.augusta.nottingham.ac.uk:151973] PMIX ERROR: UNREACHABLE in file server/pmix_server.c at line 2193
[27] 
[27]     From function macroScalarTransport
[27]     in file macroScalarTransport.C at line 118.
[20] 
[20] 
[20] --> FOAM FATAL ERROR: 
[20] Concentration under the threshold
[20] 
[20] 
[20]     From function macroScalarTransport
[20]     in file macroScalarTransport.C at line 118.
[20] 
FOAM parallel run exiting
[20] 
[27] 
FOAM parallel run exiting
[27] 
[22] 
[22] 
[22] --> FOAM FATAL ERROR: 
[22] Concentration under the threshold
[22] 
[22] 
[22]     From function macroScalarTransport
[22]     in file macroScalarTransport.C at line 118.
[22] 
FOAM parallel run exiting
[22] 
[36] 
[36] 
[36] --> FOAM FATAL ERROR: 
[36] Concentration under the threshold
[36] 
[36] 
[36]     From function macroScalarTransport
[36]     in file macroScalarTransport.C at line [9] 
[9] 
[9] --> FOAM FATAL ERROR: 
[9] Concentration under the threshold
[9] 
[9] 
[9]     From function macroScalarTransport
[9]     in file macroScalarTransport.C at line 118.
[9] 
FOAM parallel run exiting
[9] 
[0] 
[0] 
[0] --> FOAM FATAL ERROR: 
[0] Concentration under the threshold
[0] 
[0] 
[0]     From function macroScalarTransport
[0]     in file macroScalarTransport.C at line 118.
[0] 
FOAM parallel run exiting
[0] 
[6] 
[6] 
[6] --> FOAM FATAL ERROR: 
[6] Concentration under the threshold
[6] 
[6] 
[6]     From function macroScalarTransport
[6]     in file macroScalarTransport.C at line 118.
[6] 
FOAM parallel run exiting
[6] 
118.
[36] 
FOAM parallel run exiting
[36] 
[74] [12] 
[12] 
[12] --> FOAM FATAL ERROR: 
[12] Concentration under the threshold
[12] 
[12] 
[12]     From function macroScalarTransport
[12]     in file macroScalarTransport.C at line 118.
[12] 
FOAM parallel run exiting
[12] 
[38] 
[74] 
[21] 
[21] 
[21] --> FOAM FATAL ERROR: 
[21] Concentration under the threshold
[21] 
[21] 
[21]     From function macroScalarTransport
[21]     in file macroScalarTransport.C at line 118.
[21] 
FOAM parallel run exiting
[21] 
[13] 
[38] 
[38] --> FOAM FATAL ERROR: 
[38] Concentration under the threshold
[38] 
[38] 
[38]     From function macroScalarTransport
[38] [74] --> FOAM FATAL ERROR: 
[74] Concentration under the threshold
[74] 
[74] 
[74]     From function macroScalarTransport
[74]     in file macroScalarTransport.C at line [90] 
[13] 
[13] --> FOAM FATAL ERROR: 
[13] Concentration under the threshold
[13] 
[13] 
[13]     From function macroScalarTransport
[13]     in file macroScalarTransport.C at line [51]     in file macroScalarTransport.C at line 118.
[38] 
FOAM parallel run exiting
[38] 
[69] 118.
[74] 
FOAM parallel run exiting
[74] 

[90] 
[90] --> FOAM FATAL ERROR: 
[90] Concentration under the threshold
[90] 
[90] 
[90]     From function macroScalarTransport
[90]     in file [40] 
[69] 
[69] --> FOAM FATAL ERROR: 
[69] Concentration under the threshold
[69] 
[69] 
[69]     From function macroScalarTransport
[69]     in file macroScalarTransport.C at line 118.
[69] 
FOAM parallel run exiting
[69] 
macroScalarTransport.C at line 118.
[90] 
FOAM parallel run exiting
[90] 
118.
[13] 
FOAM parallel run exiting
[13] 

[51] 
[51] --> FOAM FATAL ERROR: 
[51] Concentration under the threshold
[51] 
[51] 
[51]     From function macroScalarTransport
[51]     in file macroScalarTransport.C at line 118.
[51] 
FOAM parallel run exiting
[51] 

[40] 
[66] 
[66] 
[66] --> FOAM FATAL ERROR: 
[66] Concentration under the threshold
[66] 
[66] 
[66]     From function macroScalarTransport
[79] [55] [40] --> FOAM FATAL ERROR: 
[40] Concentration under the threshold
[40] 
[40] 
[40]     From function macroScalarTransport
[40]     in file macroScalarTransport.C at line [66]     in file macroScalarTransport.C at line 118.
[66] 
FOAM parallel run exiting
[66] 

[79] 
[79] --> FOAM FATAL ERROR: 
[79] Concentration under the threshold
[79] 
[79] [84] 
[55] 
[55] --> FOAM FATAL ERROR: 
[55] Concentration under the threshold
[55] 
[55] 
[55]     From function macroScalarTransport
[55]     in file macroScalarTransport.C118.
[40] 
FOAM parallel run exiting
[40] 

[79]     From function macroScalarTransport
[79]     in file macroScalarTransport.C at line 118.
[79] 
FOAM parallel run exiting
[79] 

[84] 
[84] --> FOAM FATAL ERROR: 
[84] Concentration under the threshold
[84] 
[84]  at line 118.
[55] 
FOAM parallel run exiting
[55] 
[41] 
[84]     From function macroScalarTransport
[84]     in file macroScalarTransport.C at line 118.
[84] 
FOAM parallel run exiting
[84] 
[89] 
[41] 
[41] --> FOAM FATAL ERROR: 
[41] Concentration under the threshold
[41] 
[41] [80] 
[41]     From function macroScalarTransport
[41]     in file macroScalarTransport.C at line 118
[80] 
[80] --> FOAM FATAL ERROR: 
[80] Concentration under the threshold
[80] 
[89] 
[89] --> FOAM FATAL ERROR: 
[89] Concentration under the threshold
[89] 
[32] 
[32] 
[32] --> FOAM FATAL ERROR: 
[32] Concentration under the threshold
[32] 
[32] 
[32]     From function macroScalarTransport
[32]     in file macroScalarTransport.C at line 118.
[32] 
FOAM parallel run exiting
[32] 

[80] 
[80]     From function macroScalarTransport
[80]     in file macroScalarTransport.C at line 118.
[80] 
FOAM parallel run exiting
[80] 
[89] 
[89]     From function macroScalarTransport
[89]     in file .
[41] 
FOAM parallel run exiting
[41] 
macroScalarTransport.C at line 118.
[89] 
FOAM parallel run exiting
[89] 
[25] 
[25] 
[25] --> FOAM FATAL ERROR: 
[25] Concentration under the threshold
[25] 
[25] [73] 
[73] 
[73] --> FOAM FATAL ERROR: 
[73] Concentration under the threshold
[73] 
[73] 
[73]     From function macroScalarTransport
[73]     in file macroScalarTransport.C at line 118.
[73] 
FOAM parallel run exiting
[73] 
[25]     From function macroScalarTransport
[25]     in file macroScalarTransport.C at line 118.
[25] 
FOAM parallel run exiting
[25] 

[45] 
[45] 
[23] 
[23] 
[23] --> FOAM FATAL ERROR: 
[23] Concentration under the threshold
[23] 
[23] 
[23]     From function macroScalarTransport
[23]     in file macroScalarTransport.C at line 118.
[23] 
FOAM parallel run exiting
[23] 
[45] --> FOAM FATAL ERROR: 
[45] Concentration under the threshold
[45] 
[45] 
[45]     From function macroScalarTransport
[45]     in file macroScalarTransport.C at line 118.
[45] 
FOAM parallel run exiting
[45] 
[42] 
[42] 
[42] --> FOAM FATAL ERROR: 
[42] Concentration under the threshold
[42] 
[42] 
[42]     From function macroScalarTransport
[42]     in file macroScalarTransport.C at line 118.
[42] 
FOAM parallel run exiting
[42] 
[43] 
[43] 
[43] --> FOAM FATAL ERROR: 
[43] Concentration under the threshold
[43] 
[43] 
[43]     From function macroScalarTransport
[43]     in file macroScalarTransport.C at line 118.
[43] 
FOAM parallel run exiting
[43] 
[46] 
[46] 
[46] --> FOAM FATAL ERROR: 
[46] Concentration under the threshold
[46] 
[46] 
[46]     From function macroScalarTransport
[46]     in file macroScalarTransport.C at line 118.
[46] 
FOAM parallel run exiting
[46] 
[39] 
[39] 
[39] --> FOAM FATAL ERROR: 
[39] Concentration under the threshold
[39] 
[39] 
[39]     From function macroScalarTransport
[39]     in file macroScalarTransport.C at line 118.
[39] 
FOAM parallel run exiting
[39] 
[47] 
[47] 
[47] --> FOAM FATAL ERROR: 
[47] Concentration under the threshold
[47] 
[47] 
[47]     From function macroScalarTransport
[47]     in file macroScalarTransport.C at line 118.
[47] 
FOAM parallel run exiting
[47] 
[37] 
[37] 
[37] --> FOAM FATAL ERROR: 
[37] Concentration under the threshold
[37] 
[37] 
[37]     From function macroScalarTransport
[37]     in file macroScalarTransport.C at line 118.
[37] 
FOAM parallel run exiting
[37] 
[44] 
[44] 
[44] --> FOAM FATAL ERROR: 
[44] Concentration under the threshold
[44] 
[44] 
[44]     From function macroScalarTransport
[44]     in file macroScalarTransport.C at line 118.
[44] 
FOAM parallel run exiting
[44] 
[compute012.int.augusta.nottingham.ac.uk:151973] 95 more processes have sent help message help-mpi-api.txt / mpi-abort
[compute012.int.augusta.nottingham.ac.uk:151973] Set MCA parameter "orte_base_help_aggregate" to 0 to see all help / error messages
