/*---------------------------------------------------------------------------*\
  =========                 |
  \\      /  F ield         | OpenFOAM: The Open Source CFD Toolbox
   \\    /   O peration     | Website:  https://openfoam.org
    \\  /    A nd           | Version:  8
     \\/     M anipulation  |
\*---------------------------------------------------------------------------*/
Build  : 8
Exec   : blockMesh
Date   : Dec 07 2022
Time   : 14:46:35
Host   : "compute085.int.augusta.nottingham.ac.uk"
PID    : 196697
I/O    : uncollated
Case   : /gpfs01/home/pmxep5/PGSFlowTransport/tutorials/Herten/varPeclet/Dm1e-7alpha1e-5
nProcs : 1
sigFpe : Enabling floating point exception trapping (FOAM_SIGFPE).
fileModificationChecking : Monitoring run-time modified files using timeStampMaster (fileModificationSkew 10)
allowSystemOperations : Allowing user-supplied system call operations

// * * * * * * * * * * * * * * * * * * * * * * * * * * * * * * * * * * * * * //
Create time

Creating block mesh from
    "system/blockMeshDict"
Creating block edges
No non-planar block faces defined
Creating topology blocks
Creating topology patches

Creating block mesh topology

Check topology

	Basic statistics
		Number of internal faces : 0
		Number of boundary faces : 6
		Number of defined boundary faces : 6
		Number of undefined boundary faces : 0
	Checking patch -> block consistency

Creating block offsets
Creating merge list .

Creating polyMesh from blockMesh
Creating patches
Creating cells
Creating points with scale 1
    Block 0 cell size :
        i : 0.05 .. 0.05
        j : 0.05 .. 0.05
        k : 0.05 .. 0.05

Writing polyMesh
----------------
Mesh Information
----------------
  boundingBox: (0 0 0) (16 10 7)
  nPoints: 9097461
  nCells: 8960000
  nFaces: 27016800
  nInternalFaces: 26743200
----------------
Patches
----------------
  patch 0 (start: 26743200 size: 28000) name: inlet
  patch 1 (start: 26771200 size: 28000) name: outlet
  patch 2 (start: 26799200 size: 64000) name: lowerWall
  patch 3 (start: 26863200 size: 64000) name: upperWall
  patch 4 (start: 26927200 size: 89600) name: frontAndBack

End

/*---------------------------------------------------------------------------*\
  =========                 |
  \\      /  F ield         | OpenFOAM: The Open Source CFD Toolbox
   \\    /   O peration     | Website:  https://openfoam.org
    \\  /    A nd           | Version:  8
     \\/     M anipulation  |
\*---------------------------------------------------------------------------*/
Build  : 8
Exec   : decomposePar
Date   : Dec 07 2022
Time   : 14:47:27
Host   : "compute085.int.augusta.nottingham.ac.uk"
PID    : 196748
I/O    : uncollated
Case   : /gpfs01/home/pmxep5/PGSFlowTransport/tutorials/Herten/varPeclet/Dm1e-7alpha1e-5
nProcs : 1
sigFpe : Enabling floating point exception trapping (FOAM_SIGFPE).
fileModificationChecking : Monitoring run-time modified files using timeStampMaster (fileModificationSkew 10)
allowSystemOperations : Allowing user-supplied system call operations

// * * * * * * * * * * * * * * * * * * * * * * * * * * * * * * * * * * * * * //
Create time



Decomposing mesh region0

Create mesh

Calculating distribution of cells
Selecting decompositionMethod simple

Finished decomposition in 5.6 s

Calculating original mesh data

Distributing cells to processors

Distributing faces to processors

Distributing points to processors

Constructing processor meshes

Processor 0
    Number of cells = 94000
    Number of faces shared with processor 1 = 2350
    Number of faces shared with processor 8 = 1880
    Number of faces shared with processor 32 = 2000
    Number of processor patches = 3
    Number of processor faces = 6230
    Number of boundary faces = 6230

Processor 1
    Number of cells = 94000
    Number of faces shared with processor 0 = 2350
    Number of faces shared with processor 2 = 2350
    Number of faces shared with processor 9 = 1880
    Number of faces shared with processor 33 = 2000
    Number of processor patches = 4
    Number of processor faces = 8580
    Number of boundary faces = 3880

Processor 2
    Number of cells = 94000
    Number of faces shared with processor 1 = 2350
    Number of faces shared with processor 3 = 2350
    Number of faces shared with processor 10 = 1880
    Number of faces shared with processor 34 = 2000
    Number of processor patches = 4
    Number of processor faces = 8580
    Number of boundary faces = 3880

Processor 3
    Number of cells = 94000
    Number of faces shared with processor 2 = 2350
    Number of faces shared with processor 4 = 2350
    Number of faces shared with processor 11 = 1880
    Number of faces shared with processor 35 = 2000
    Number of processor patches = 4
    Number of processor faces = 8580
    Number of boundary faces = 3880

Processor 4
    Number of cells = 94000
    Number of faces shared with processor 3 = 2350
    Number of faces shared with processor 5 = 2350
    Number of faces shared with processor 12 = 1880
    Number of faces shared with processor 36 = 2000
    Number of processor patches = 4
    Number of processor faces = 8580
    Number of boundary faces = 3880

Processor 5
    Number of cells = 94000
    Number of faces shared with processor 4 = 2350
    Number of faces shared with processor 6 = 2350
    Number of faces shared with processor 13 = 1880
    Number of faces shared with processor 37 = 2000
    Number of processor patches = 4
    Number of processor faces = 8580
    Number of boundary faces = 3880

Processor 6
    Number of cells = 93864
    Number of faces shared with processor 5 = 2350
    Number of faces shared with processor 7 = 2332
    Number of faces shared with processor 14 = 1863
    Number of faces shared with processor 38 = 2032
    Number of faces shared with processor 39 = 2
    Number of faces shared with processor 46 = 1
    Number of processor patches = 6
    Number of processor faces = 8580
    Number of boundary faces = 3880

Processor 7
    Number of cells = 92528
    Number of faces shared with processor 6 = 2332
    Number of faces shared with processor 15 = 1840
    Number of faces shared with processor 39 = 2064
    Number of processor patches = 3
    Number of processor faces = 6236
    Number of boundary faces = 6172

Processor 8
    Number of cells = 94000
    Number of faces shared with processor 0 = 1880
    Number of faces shared with processor 9 = 2350
    Number of faces shared with processor 16 = 1880
    Number of faces shared with processor 40 = 2000
    Number of processor patches = 4
    Number of processor faces = 8110
    Number of boundary faces = 4350

Processor 9
    Number of cells = 94000
    Number of faces shared with processor 1 = 1880
    Number of faces shared with processor 8 = 2350
    Number of faces shared with processor 10 = 2350
    Number of faces shared with processor 17 = 1880
    Number of faces shared with processor 41 = 2000
    Number of processor patches = 5
    Number of processor faces = 10460
    Number of boundary faces = 2000

Processor 10
    Number of cells = 94000
    Number of faces shared with processor 2 = 1880
    Number of faces shared with processor 9 = 2350
    Number of faces shared with processor 11 = 2350
    Number of faces shared with processor 18 = 1880
    Number of faces shared with processor 42 = 2000
    Number of processor patches = 5
    Number of processor faces = 10460
    Number of boundary faces = 2000

Processor 11
    Number of cells = 94000
    Number of faces shared with processor 3 = 1880
    Number of faces shared with processor 10 = 2350
    Number of faces shared with processor 12 = 2350
    Number of faces shared with processor 19 = 1880
    Number of faces shared with processor 43 = 2000
    Number of processor patches = 5
    Number of processor faces = 10460
    Number of boundary faces = 2000

Processor 12
    Number of cells = 94000
    Number of faces shared with processor 4 = 1880
    Number of faces shared with processor 11 = 2350
    Number of faces shared with processor 13 = 2350
    Number of faces shared with processor 20 = 1880
    Number of faces shared with processor 44 = 2000
    Number of processor patches = 5
    Number of processor faces = 10460
    Number of boundary faces = 2000

Processor 13
    Number of cells = 93649
    Number of faces shared with processor 5 = 1880
    Number of faces shared with processor 12 = 2350
    Number of faces shared with processor 14 = 2323
    Number of faces shared with processor 21 = 1853
    Number of faces shared with processor 45 = 2052
    Number of faces shared with processor 46 = 1
    Number of faces shared with processor 53 = 1
    Number of processor patches = 7
    Number of processor faces = 10460
    Number of boundary faces = 2000

Processor 14
    Number of cells = 92276
    Number of faces shared with processor 6 = 1863
    Number of faces shared with processor 13 = 2323
    Number of faces shared with processor 15 = 2300
    Number of faces shared with processor 22 = 1840
    Number of faces shared with processor 46 = 2046
    Number of processor patches = 5
    Number of processor faces = 10372
    Number of boundary faces = 2000

Processor 15
    Number of cells = 92000
    Number of faces shared with processor 7 = 1840
    Number of faces shared with processor 14 = 2300
    Number of faces shared with processor 23 = 1840
    Number of faces shared with processor 47 = 2000
    Number of processor patches = 4
    Number of processor faces = 7980
    Number of boundary faces = 4300

Processor 16
    Number of cells = 94000
    Number of faces shared with processor 8 = 1880
    Number of faces shared with processor 17 = 2350
    Number of faces shared with processor 24 = 1880
    Number of faces shared with processor 48 = 2000
    Number of processor patches = 4
    Number of processor faces = 8110
    Number of boundary faces = 4350

Processor 17
    Number of cells = 94000
    Number of faces shared with processor 9 = 1880
    Number of faces shared with processor 16 = 2350
    Number of faces shared with processor 18 = 2350
    Number of faces shared with processor 25 = 1880
    Number of faces shared with processor 49 = 2000
    Number of processor patches = 5
    Number of processor faces = 10460
    Number of boundary faces = 2000

Processor 18
    Number of cells = 94000
    Number of faces shared with processor 10 = 1880
    Number of faces shared with processor 17 = 2350
    Number of faces shared with processor 19 = 2350
    Number of faces shared with processor 26 = 1880
    Number of faces shared with processor 50 = 2000
    Number of processor patches = 5
    Number of processor faces = 10460
    Number of boundary faces = 2000

Processor 19
    Number of cells = 94000
    Number of faces shared with processor 11 = 1880
    Number of faces shared with processor 18 = 2350
    Number of faces shared with processor 20 = 2350
    Number of faces shared with processor 27 = 1880
    Number of faces shared with processor 51 = 2000
    Number of processor patches = 5
    Number of processor faces = 10460
    Number of boundary faces = 2000

Processor 20
    Number of cells = 93334
    Number of faces shared with processor 12 = 1880
    Number of faces shared with processor 19 = 2350
    Number of faces shared with processor 21 = 2313
    Number of faces shared with processor 28 = 1843
    Number of faces shared with processor 52 = 2072
    Number of faces shared with processor 53 = 1
    Number of faces shared with processor 60 = 1
    Number of processor patches = 7
    Number of processor faces = 10460
    Number of boundary faces = 2000

Processor 21
    Number of cells = 92091
    Number of faces shared with processor 13 = 1853
    Number of faces shared with processor 20 = 2313
    Number of faces shared with processor 22 = 2300
    Number of faces shared with processor 29 = 1840
    Number of faces shared with processor 53 = 2026
    Number of processor patches = 5
    Number of processor faces = 10332
    Number of boundary faces = 2000

Processor 22
    Number of cells = 92000
    Number of faces shared with processor 14 = 1840
    Number of faces shared with processor 21 = 2300
    Number of faces shared with processor 23 = 2300
    Number of faces shared with processor 30 = 1840
    Number of faces shared with processor 54 = 2000
    Number of processor patches = 5
    Number of processor faces = 10280
    Number of boundary faces = 2000

Processor 23
    Number of cells = 92000
    Number of faces shared with processor 15 = 1840
    Number of faces shared with processor 22 = 2300
    Number of faces shared with processor 31 = 1840
    Number of faces shared with processor 55 = 2000
    Number of processor patches = 4
    Number of processor faces = 7980
    Number of boundary faces = 4300

Processor 24
    Number of cells = 94000
    Number of faces shared with processor 16 = 1880
    Number of faces shared with processor 25 = 2350
    Number of faces shared with processor 56 = 2000
    Number of processor patches = 3
    Number of processor faces = 6230
    Number of boundary faces = 6230

Processor 25
    Number of cells = 94000
    Number of faces shared with processor 17 = 1880
    Number of faces shared with processor 24 = 2350
    Number of faces shared with processor 26 = 2350
    Number of faces shared with processor 57 = 2000
    Number of processor patches = 4
    Number of processor faces = 8580
    Number of boundary faces = 3880

Processor 26
    Number of cells = 93979
    Number of faces shared with processor 18 = 1880
    Number of faces shared with processor 25 = 2350
    Number of faces shared with processor 27 = 2343
    Number of faces shared with processor 58 = 2012
    Number of faces shared with processor 59 = 1
    Number of processor patches = 5
    Number of processor faces = 8586
    Number of boundary faces = 3874

Processor 27
    Number of cells = 92940
    Number of faces shared with processor 19 = 1880
    Number of faces shared with processor 26 = 2343
    Number of faces shared with processor 28 = 2303
    Number of faces shared with processor 59 = 2079
    Number of faces shared with processor 60 = 1
    Number of processor patches = 5
    Number of processor faces = 8606
    Number of boundary faces = 3840

Processor 28
    Number of cells = 92006
    Number of faces shared with processor 20 = 1843
    Number of faces shared with processor 27 = 2303
    Number of faces shared with processor 29 = 2300
    Number of faces shared with processor 60 = 2006
    Number of processor patches = 4
    Number of processor faces = 8452
    Number of boundary faces = 3840

Processor 29
    Number of cells = 92000
    Number of faces shared with processor 21 = 1840
    Number of faces shared with processor 28 = 2300
    Number of faces shared with processor 30 = 2300
    Number of faces shared with processor 61 = 2000
    Number of processor patches = 4
    Number of processor faces = 8440
    Number of boundary faces = 3840

Processor 30
    Number of cells = 92000
    Number of faces shared with processor 22 = 1840
    Number of faces shared with processor 29 = 2300
    Number of faces shared with processor 31 = 2300
    Number of faces shared with processor 62 = 2000
    Number of processor patches = 4
    Number of processor faces = 8440
    Number of boundary faces = 3840

Processor 31
    Number of cells = 92000
    Number of faces shared with processor 23 = 1840
    Number of faces shared with processor 30 = 2300
    Number of faces shared with processor 63 = 2000
    Number of processor patches = 3
    Number of processor faces = 6140
    Number of boundary faces = 6140

Processor 32
    Number of cells = 94000
    Number of faces shared with processor 0 = 2000
    Number of faces shared with processor 33 = 2350
    Number of faces shared with processor 40 = 1880
    Number of faces shared with processor 64 = 2000
    Number of processor patches = 4
    Number of processor faces = 8230
    Number of boundary faces = 4230

Processor 33
    Number of cells = 94000
    Number of faces shared with processor 1 = 2000
    Number of faces shared with processor 32 = 2350
    Number of faces shared with processor 34 = 2350
    Number of faces shared with processor 41 = 1880
    Number of faces shared with processor 65 = 2000
    Number of processor patches = 5
    Number of processor faces = 10580
    Number of boundary faces = 1880

Processor 34
    Number of cells = 94000
    Number of faces shared with processor 2 = 2000
    Number of faces shared with processor 33 = 2350
    Number of faces shared with processor 35 = 2350
    Number of faces shared with processor 42 = 1880
    Number of faces shared with processor 66 = 2000
    Number of processor patches = 5
    Number of processor faces = 10580
    Number of boundary faces = 1880

Processor 35
    Number of cells = 93994
    Number of faces shared with processor 3 = 2000
    Number of faces shared with processor 34 = 2350
    Number of faces shared with processor 36 = 2346
    Number of faces shared with processor 43 = 1876
    Number of faces shared with processor 67 = 2006
    Number of faces shared with processor 68 = 1
    Number of faces shared with processor 75 = 1
    Number of processor patches = 7
    Number of processor faces = 10580
    Number of boundary faces = 1880

Processor 36
    Number of cells = 93060
    Number of faces shared with processor 4 = 2000
    Number of faces shared with processor 35 = 2346
    Number of faces shared with processor 37 = 2306
    Number of faces shared with processor 44 = 1840
    Number of faces shared with processor 68 = 2079
    Number of faces shared with processor 69 = 1
    Number of processor patches = 6
    Number of processor faces = 10572
    Number of boundary faces = 1880

Processor 37
    Number of cells = 92021
    Number of faces shared with processor 5 = 2000
    Number of faces shared with processor 36 = 2306
    Number of faces shared with processor 38 = 2300
    Number of faces shared with processor 45 = 1840
    Number of faces shared with processor 69 = 2012
    Number of processor patches = 5
    Number of processor faces = 10458
    Number of boundary faces = 1846

Processor 38
    Number of cells = 92136
    Number of faces shared with processor 6 = 2032
    Number of faces shared with processor 37 = 2300
    Number of faces shared with processor 39 = 2316
    Number of faces shared with processor 46 = 1856
    Number of faces shared with processor 70 = 2000
    Number of processor patches = 5
    Number of processor faces = 10504
    Number of boundary faces = 1840

Processor 39
    Number of cells = 93472
    Number of faces shared with processor 6 = 2
    Number of faces shared with processor 7 = 2064
    Number of faces shared with processor 38 = 2316
    Number of faces shared with processor 47 = 1880
    Number of faces shared with processor 71 = 2000
    Number of processor patches = 5
    Number of processor faces = 8262
    Number of boundary faces = 4198

Processor 40
    Number of cells = 94000
    Number of faces shared with processor 8 = 2000
    Number of faces shared with processor 32 = 1880
    Number of faces shared with processor 41 = 2350
    Number of faces shared with processor 48 = 1880
    Number of faces shared with processor 72 = 2000
    Number of processor patches = 5
    Number of processor faces = 10110
    Number of boundary faces = 2350

Processor 41
    Number of cells = 94000
    Number of faces shared with processor 9 = 2000
    Number of faces shared with processor 33 = 1880
    Number of faces shared with processor 40 = 2350
    Number of faces shared with processor 42 = 2350
    Number of faces shared with processor 49 = 1880
    Number of faces shared with processor 73 = 2000
    Number of processor patches = 6
    Number of processor faces = 12460
    Number of boundary faces = 0

Processor 42
    Number of cells = 93909
    Number of faces shared with processor 10 = 2000
    Number of faces shared with processor 34 = 1880
    Number of faces shared with processor 41 = 2350
    Number of faces shared with processor 43 = 2336
    Number of faces shared with processor 50 = 1866
    Number of faces shared with processor 74 = 2026
    Number of faces shared with processor 75 = 1
    Number of faces shared with processor 82 = 1
    Number of processor patches = 8
    Number of processor faces = 12460
    Number of boundary faces = 0

Processor 43
    Number of cells = 92666
    Number of faces shared with processor 11 = 2000
    Number of faces shared with processor 35 = 1876
    Number of faces shared with processor 42 = 2336
    Number of faces shared with processor 44 = 2300
    Number of faces shared with processor 51 = 1840
    Number of faces shared with processor 75 = 2072
    Number of processor patches = 6
    Number of processor faces = 12424
    Number of boundary faces = 0

Processor 44
    Number of cells = 92000
    Number of faces shared with processor 12 = 2000
    Number of faces shared with processor 36 = 1840
    Number of faces shared with processor 43 = 2300
    Number of faces shared with processor 45 = 2300
    Number of faces shared with processor 52 = 1840
    Number of faces shared with processor 76 = 2000
    Number of processor patches = 6
    Number of processor faces = 12280
    Number of boundary faces = 0

Processor 45
    Number of cells = 92351
    Number of faces shared with processor 13 = 2052
    Number of faces shared with processor 37 = 1840
    Number of faces shared with processor 44 = 2300
    Number of faces shared with processor 46 = 2326
    Number of faces shared with processor 53 = 1866
    Number of faces shared with processor 77 = 2000
    Number of processor patches = 6
    Number of processor faces = 12384
    Number of boundary faces = 0

Processor 46
    Number of cells = 93724
    Number of faces shared with processor 6 = 1
    Number of faces shared with processor 13 = 1
    Number of faces shared with processor 14 = 2046
    Number of faces shared with processor 38 = 1856
    Number of faces shared with processor 45 = 2326
    Number of faces shared with processor 47 = 2350
    Number of faces shared with processor 54 = 1880
    Number of faces shared with processor 78 = 2000
    Number of processor patches = 8
    Number of processor faces = 12460
    Number of boundary faces = 0

Processor 47
    Number of cells = 94000
    Number of faces shared with processor 15 = 2000
    Number of faces shared with processor 39 = 1880
    Number of faces shared with processor 46 = 2350
    Number of faces shared with processor 55 = 1880
    Number of faces shared with processor 79 = 2000
    Number of processor patches = 5
    Number of processor faces = 10110
    Number of boundary faces = 2350

Processor 48
    Number of cells = 94000
    Number of faces shared with processor 16 = 2000
    Number of faces shared with processor 40 = 1880
    Number of faces shared with processor 49 = 2350
    Number of faces shared with processor 56 = 1880
    Number of faces shared with processor 80 = 2000
    Number of processor patches = 5
    Number of processor faces = 10110
    Number of boundary faces = 2350

Processor 49
    Number of cells = 93724
    Number of faces shared with processor 17 = 2000
    Number of faces shared with processor 41 = 1880
    Number of faces shared with processor 48 = 2350
    Number of faces shared with processor 50 = 2326
    Number of faces shared with processor 57 = 1856
    Number of faces shared with processor 81 = 2046
    Number of faces shared with processor 82 = 1
    Number of faces shared with processor 89 = 1
    Number of processor patches = 8
    Number of processor faces = 12460
    Number of boundary faces = 0

Processor 50
    Number of cells = 92351
    Number of faces shared with processor 18 = 2000
    Number of faces shared with processor 42 = 1866
    Number of faces shared with processor 49 = 2326
    Number of faces shared with processor 51 = 2300
    Number of faces shared with processor 58 = 1840
    Number of faces shared with processor 82 = 2052
    Number of processor patches = 6
    Number of processor faces = 12384
    Number of boundary faces = 0

Processor 51
    Number of cells = 92000
    Number of faces shared with processor 19 = 2000
    Number of faces shared with processor 43 = 1840
    Number of faces shared with processor 50 = 2300
    Number of faces shared with processor 52 = 2300
    Number of faces shared with processor 59 = 1840
    Number of faces shared with processor 83 = 2000
    Number of processor patches = 6
    Number of processor faces = 12280
    Number of boundary faces = 0

Processor 52
    Number of cells = 92666
    Number of faces shared with processor 20 = 2072
    Number of faces shared with processor 44 = 1840
    Number of faces shared with processor 51 = 2300
    Number of faces shared with processor 53 = 2336
    Number of faces shared with processor 60 = 1876
    Number of faces shared with processor 84 = 2000
    Number of processor patches = 6
    Number of processor faces = 12424
    Number of boundary faces = 0

Processor 53
    Number of cells = 93909
    Number of faces shared with processor 13 = 1
    Number of faces shared with processor 20 = 1
    Number of faces shared with processor 21 = 2026
    Number of faces shared with processor 45 = 1866
    Number of faces shared with processor 52 = 2336
    Number of faces shared with processor 54 = 2350
    Number of faces shared with processor 61 = 1880
    Number of faces shared with processor 85 = 2000
    Number of processor patches = 8
    Number of processor faces = 12460
    Number of boundary faces = 0

Processor 54
    Number of cells = 94000
    Number of faces shared with processor 22 = 2000
    Number of faces shared with processor 46 = 1880
    Number of faces shared with processor 53 = 2350
    Number of faces shared with processor 55 = 2350
    Number of faces shared with processor 62 = 1880
    Number of faces shared with processor 86 = 2000
    Number of processor patches = 6
    Number of processor faces = 12460
    Number of boundary faces = 0

Processor 55
    Number of cells = 94000
    Number of faces shared with processor 23 = 2000
    Number of faces shared with processor 47 = 1880
    Number of faces shared with processor 54 = 2350
    Number of faces shared with processor 63 = 1880
    Number of faces shared with processor 87 = 2000
    Number of processor patches = 5
    Number of processor faces = 10110
    Number of boundary faces = 2350

Processor 56
    Number of cells = 93472
    Number of faces shared with processor 24 = 2000
    Number of faces shared with processor 48 = 1880
    Number of faces shared with processor 57 = 2317
    Number of faces shared with processor 88 = 2064
    Number of faces shared with processor 89 = 1
    Number of processor patches = 5
    Number of processor faces = 8262
    Number of boundary faces = 4198

Processor 57
    Number of cells = 92137
    Number of faces shared with processor 25 = 2000
    Number of faces shared with processor 49 = 1856
    Number of faces shared with processor 56 = 2317
    Number of faces shared with processor 58 = 2300
    Number of faces shared with processor 89 = 2033
    Number of processor patches = 5
    Number of processor faces = 10506
    Number of boundary faces = 1840

Processor 58
    Number of cells = 92021
    Number of faces shared with processor 26 = 2012
    Number of faces shared with processor 50 = 1840
    Number of faces shared with processor 57 = 2300
    Number of faces shared with processor 59 = 2306
    Number of faces shared with processor 90 = 2000
    Number of processor patches = 5
    Number of processor faces = 10458
    Number of boundary faces = 1846

Processor 59
    Number of cells = 93060
    Number of faces shared with processor 26 = 1
    Number of faces shared with processor 27 = 2079
    Number of faces shared with processor 51 = 1840
    Number of faces shared with processor 58 = 2306
    Number of faces shared with processor 60 = 2346
    Number of faces shared with processor 91 = 2000
    Number of processor patches = 6
    Number of processor faces = 10572
    Number of boundary faces = 1880

Processor 60
    Number of cells = 93994
    Number of faces shared with processor 20 = 1
    Number of faces shared with processor 27 = 1
    Number of faces shared with processor 28 = 2006
    Number of faces shared with processor 52 = 1876
    Number of faces shared with processor 59 = 2346
    Number of faces shared with processor 61 = 2350
    Number of faces shared with processor 92 = 2000
    Number of processor patches = 7
    Number of processor faces = 10580
    Number of boundary faces = 1880

Processor 61
    Number of cells = 94000
    Number of faces shared with processor 29 = 2000
    Number of faces shared with processor 53 = 1880
    Number of faces shared with processor 60 = 2350
    Number of faces shared with processor 62 = 2350
    Number of faces shared with processor 93 = 2000
    Number of processor patches = 5
    Number of processor faces = 10580
    Number of boundary faces = 1880

Processor 62
    Number of cells = 94000
    Number of faces shared with processor 30 = 2000
    Number of faces shared with processor 54 = 1880
    Number of faces shared with processor 61 = 2350
    Number of faces shared with processor 63 = 2350
    Number of faces shared with processor 94 = 2000
    Number of processor patches = 5
    Number of processor faces = 10580
    Number of boundary faces = 1880

Processor 63
    Number of cells = 94000
    Number of faces shared with processor 31 = 2000
    Number of faces shared with processor 55 = 1880
    Number of faces shared with processor 62 = 2350
    Number of faces shared with processor 95 = 2000
    Number of processor patches = 4
    Number of processor faces = 8230
    Number of boundary faces = 4230

Processor 64
    Number of cells = 92000
    Number of faces shared with processor 32 = 2000
    Number of faces shared with processor 65 = 2300
    Number of faces shared with processor 72 = 1840
    Number of processor patches = 3
    Number of processor faces = 6140
    Number of boundary faces = 6140

Processor 65
    Number of cells = 92000
    Number of faces shared with processor 33 = 2000
    Number of faces shared with processor 64 = 2300
    Number of faces shared with processor 66 = 2300
    Number of faces shared with processor 73 = 1840
    Number of processor patches = 4
    Number of processor faces = 8440
    Number of boundary faces = 3840

Processor 66
    Number of cells = 92000
    Number of faces shared with processor 34 = 2000
    Number of faces shared with processor 65 = 2300
    Number of faces shared with processor 67 = 2300
    Number of faces shared with processor 74 = 1840
    Number of processor patches = 4
    Number of processor faces = 8440
    Number of boundary faces = 3840

Processor 67
    Number of cells = 92006
    Number of faces shared with processor 35 = 2006
    Number of faces shared with processor 66 = 2300
    Number of faces shared with processor 68 = 2303
    Number of faces shared with processor 75 = 1843
    Number of processor patches = 4
    Number of processor faces = 8452
    Number of boundary faces = 3840

Processor 68
    Number of cells = 92940
    Number of faces shared with processor 35 = 1
    Number of faces shared with processor 36 = 2079
    Number of faces shared with processor 67 = 2303
    Number of faces shared with processor 69 = 2343
    Number of faces shared with processor 76 = 1880
    Number of processor patches = 5
    Number of processor faces = 8606
    Number of boundary faces = 3840

Processor 69
    Number of cells = 93979
    Number of faces shared with processor 36 = 1
    Number of faces shared with processor 37 = 2012
    Number of faces shared with processor 68 = 2343
    Number of faces shared with processor 70 = 2350
    Number of faces shared with processor 77 = 1880
    Number of processor patches = 5
    Number of processor faces = 8586
    Number of boundary faces = 3874

Processor 70
    Number of cells = 94000
    Number of faces shared with processor 38 = 2000
    Number of faces shared with processor 69 = 2350
    Number of faces shared with processor 71 = 2350
    Number of faces shared with processor 78 = 1880
    Number of processor patches = 4
    Number of processor faces = 8580
    Number of boundary faces = 3880

Processor 71
    Number of cells = 94000
    Number of faces shared with processor 39 = 2000
    Number of faces shared with processor 70 = 2350
    Number of faces shared with processor 79 = 1880
    Number of processor patches = 3
    Number of processor faces = 6230
    Number of boundary faces = 6230

Processor 72
    Number of cells = 92000
    Number of faces shared with processor 40 = 2000
    Number of faces shared with processor 64 = 1840
    Number of faces shared with processor 73 = 2300
    Number of faces shared with processor 80 = 1840
    Number of processor patches = 4
    Number of processor faces = 7980
    Number of boundary faces = 4300

Processor 73
    Number of cells = 92000
    Number of faces shared with processor 41 = 2000
    Number of faces shared with processor 65 = 1840
    Number of faces shared with processor 72 = 2300
    Number of faces shared with processor 74 = 2300
    Number of faces shared with processor 81 = 1840
    Number of processor patches = 5
    Number of processor faces = 10280
    Number of boundary faces = 2000

Processor 74
    Number of cells = 92091
    Number of faces shared with processor 42 = 2026
    Number of faces shared with processor 66 = 1840
    Number of faces shared with processor 73 = 2300
    Number of faces shared with processor 75 = 2313
    Number of faces shared with processor 82 = 1853
    Number of processor patches = 5
    Number of processor faces = 10332
    Number of boundary faces = 2000

Processor 75
    Number of cells = 93334
    Number of faces shared with processor 35 = 1
    Number of faces shared with processor 42 = 1
    Number of faces shared with processor 43 = 2072
    Number of faces shared with processor 67 = 1843
    Number of faces shared with processor 74 = 2313
    Number of faces shared with processor 76 = 2350
    Number of faces shared with processor 83 = 1880
    Number of processor patches = 7
    Number of processor faces = 10460
    Number of boundary faces = 2000

Processor 76
    Number of cells = 94000
    Number of faces shared with processor 44 = 2000
    Number of faces shared with processor 68 = 1880
    Number of faces shared with processor 75 = 2350
    Number of faces shared with processor 77 = 2350
    Number of faces shared with processor 84 = 1880
    Number of processor patches = 5
    Number of processor faces = 10460
    Number of boundary faces = 2000

Processor 77
    Number of cells = 94000
    Number of faces shared with processor 45 = 2000
    Number of faces shared with processor 69 = 1880
    Number of faces shared with processor 76 = 2350
    Number of faces shared with processor 78 = 2350
    Number of faces shared with processor 85 = 1880
    Number of processor patches = 5
    Number of processor faces = 10460
    Number of boundary faces = 2000

Processor 78
    Number of cells = 94000
    Number of faces shared with processor 46 = 2000
    Number of faces shared with processor 70 = 1880
    Number of faces shared with processor 77 = 2350
    Number of faces shared with processor 79 = 2350
    Number of faces shared with processor 86 = 1880
    Number of processor patches = 5
    Number of processor faces = 10460
    Number of boundary faces = 2000

Processor 79
    Number of cells = 94000
    Number of faces shared with processor 47 = 2000
    Number of faces shared with processor 71 = 1880
    Number of faces shared with processor 78 = 2350
    Number of faces shared with processor 87 = 1880
    Number of processor patches = 4
    Number of processor faces = 8110
    Number of boundary faces = 4350

Processor 80
    Number of cells = 92000
    Number of faces shared with processor 48 = 2000
    Number of faces shared with processor 72 = 1840
    Number of faces shared with processor 81 = 2300
    Number of faces shared with processor 88 = 1840
    Number of processor patches = 4
    Number of processor faces = 7980
    Number of boundary faces = 4300

Processor 81
    Number of cells = 92276
    Number of faces shared with processor 49 = 2046
    Number of faces shared with processor 73 = 1840
    Number of faces shared with processor 80 = 2300
    Number of faces shared with processor 82 = 2323
    Number of faces shared with processor 89 = 1863
    Number of processor patches = 5
    Number of processor faces = 10372
    Number of boundary faces = 2000

Processor 82
    Number of cells = 93649
    Number of faces shared with processor 42 = 1
    Number of faces shared with processor 49 = 1
    Number of faces shared with processor 50 = 2052
    Number of faces shared with processor 74 = 1853
    Number of faces shared with processor 81 = 2323
    Number of faces shared with processor 83 = 2350
    Number of faces shared with processor 90 = 1880
    Number of processor patches = 7
    Number of processor faces = 10460
    Number of boundary faces = 2000

Processor 83
    Number of cells = 94000
    Number of faces shared with processor 51 = 2000
    Number of faces shared with processor 75 = 1880
    Number of faces shared with processor 82 = 2350
    Number of faces shared with processor 84 = 2350
    Number of faces shared with processor 91 = 1880
    Number of processor patches = 5
    Number of processor faces = 10460
    Number of boundary faces = 2000

Processor 84
    Number of cells = 94000
    Number of faces shared with processor 52 = 2000
    Number of faces shared with processor 76 = 1880
    Number of faces shared with processor 83 = 2350
    Number of faces shared with processor 85 = 2350
    Number of faces shared with processor 92 = 1880
    Number of processor patches = 5
    Number of processor faces = 10460
    Number of boundary faces = 2000

Processor 85
    Number of cells = 94000
    Number of faces shared with processor 53 = 2000
    Number of faces shared with processor 77 = 1880
    Number of faces shared with processor 84 = 2350
    Number of faces shared with processor 86 = 2350
    Number of faces shared with processor 93 = 1880
    Number of processor patches = 5
    Number of processor faces = 10460
    Number of boundary faces = 2000

Processor 86
    Number of cells = 94000
    Number of faces shared with processor 54 = 2000
    Number of faces shared with processor 78 = 1880
    Number of faces shared with processor 85 = 2350
    Number of faces shared with processor 87 = 2350
    Number of faces shared with processor 94 = 1880
    Number of processor patches = 5
    Number of processor faces = 10460
    Number of boundary faces = 2000

Processor 87
    Number of cells = 94000
    Number of faces shared with processor 55 = 2000
    Number of faces shared with processor 79 = 1880
    Number of faces shared with processor 86 = 2350
    Number of faces shared with processor 95 = 1880
    Number of processor patches = 4
    Number of processor faces = 8110
    Number of boundary faces = 4350

Processor 88
    Number of cells = 92528
    Number of faces shared with processor 56 = 2064
    Number of faces shared with processor 80 = 1840
    Number of faces shared with processor 89 = 2332
    Number of processor patches = 3
    Number of processor faces = 6236
    Number of boundary faces = 6172

Processor 89
    Number of cells = 93863
    Number of faces shared with processor 49 = 1
    Number of faces shared with processor 56 = 1
    Number of faces shared with processor 57 = 2033
    Number of faces shared with processor 81 = 1863
    Number of faces shared with processor 88 = 2332
    Number of faces shared with processor 90 = 2350
    Number of processor patches = 6
    Number of processor faces = 8580
    Number of boundary faces = 3880

Processor 90
    Number of cells = 94000
    Number of faces shared with processor 58 = 2000
    Number of faces shared with processor 82 = 1880
    Number of faces shared with processor 89 = 2350
    Number of faces shared with processor 91 = 2350
    Number of processor patches = 4
    Number of processor faces = 8580
    Number of boundary faces = 3880

Processor 91
    Number of cells = 94000
    Number of faces shared with processor 59 = 2000
    Number of faces shared with processor 83 = 1880
    Number of faces shared with processor 90 = 2350
    Number of faces shared with processor 92 = 2350
    Number of processor patches = 4
    Number of processor faces = 8580
    Number of boundary faces = 3880

Processor 92
    Number of cells = 94000
    Number of faces shared with processor 60 = 2000
    Number of faces shared with processor 84 = 1880
    Number of faces shared with processor 91 = 2350
    Number of faces shared with processor 93 = 2350
    Number of processor patches = 4
    Number of processor faces = 8580
    Number of boundary faces = 3880

Processor 93
    Number of cells = 94000
    Number of faces shared with processor 61 = 2000
    Number of faces shared with processor 85 = 1880
    Number of faces shared with processor 92 = 2350
    Number of faces shared with processor 94 = 2350
    Number of processor patches = 4
    Number of processor faces = 8580
    Number of boundary faces = 3880

Processor 94
    Number of cells = 94000
    Number of faces shared with processor 62 = 2000
    Number of faces shared with processor 86 = 1880
    Number of faces shared with processor 93 = 2350
    Number of faces shared with processor 95 = 2350
    Number of processor patches = 4
    Number of processor faces = 8580
    Number of boundary faces = 3880

Processor 95
    Number of cells = 94000
    Number of faces shared with processor 63 = 2000
    Number of faces shared with processor 87 = 1880
    Number of faces shared with processor 94 = 2350
    Number of processor patches = 3
    Number of processor faces = 6230
    Number of boundary faces = 6230

Number of processor faces = 459179
Max number of cells = 94000 (0.714286% above average 93333.3)
Max number of processor patches = 8 (62.7119% above average 4.91667)
Max number of faces between processors = 12460 (30.2499% above average 9566.23)

Time = 0

Processor 0: field transfer
Processor 1: field transfer
Processor 2: field transfer
Processor 3: field transfer
Processor 4: field transfer
Processor 5: field transfer
Processor 6: field transfer
Processor 7: field transfer
Processor 8: field transfer
Processor 9: field transfer
Processor 10: field transfer
Processor 11: field transfer
Processor 12: field transfer
Processor 13: field transfer
Processor 14: field transfer
Processor 15: field transfer
Processor 16: field transfer
Processor 17: field transfer
Processor 18: field transfer
Processor 19: field transfer
Processor 20: field transfer
Processor 21: field transfer
Processor 22: field transfer
Processor 23: field transfer
Processor 24: field transfer
Processor 25: field transfer
Processor 26: field transfer
Processor 27: field transfer
Processor 28: field transfer
Processor 29: field transfer
Processor 30: field transfer
Processor 31: field transfer
Processor 32: field transfer
Processor 33: field transfer
Processor 34: field transfer
Processor 35: field transfer
Processor 36: field transfer
Processor 37: field transfer
Processor 38: field transfer
Processor 39: field transfer
Processor 40: field transfer
Processor 41: field transfer
Processor 42: field transfer
Processor 43: field transfer
Processor 44: field transfer
Processor 45: field transfer
Processor 46: field transfer
Processor 47: field transfer
Processor 48: field transfer
Processor 49: field transfer
Processor 50: field transfer
Processor 51: field transfer
Processor 52: field transfer
Processor 53: field transfer
Processor 54: field transfer
Processor 55: field transfer
Processor 56: field transfer
Processor 57: field transfer
Processor 58: field transfer
Processor 59: field transfer
Processor 60: field transfer
Processor 61: field transfer
Processor 62: field transfer
Processor 63: field transfer
Processor 64: field transfer
Processor 65: field transfer
Processor 66: field transfer
Processor 67: field transfer
Processor 68: field transfer
Processor 69: field transfer
Processor 70: field transfer
Processor 71: field transfer
Processor 72: field transfer
Processor 73: field transfer
Processor 74: field transfer
Processor 75: field transfer
Processor 76: field transfer
Processor 77: field transfer
Processor 78: field transfer
Processor 79: field transfer
Processor 80: field transfer
Processor 81: field transfer
Processor 82: field transfer
Processor 83: field transfer
Processor 84: field transfer
Processor 85: field transfer
Processor 86: field transfer
Processor 87: field transfer
Processor 88: field transfer
Processor 89: field transfer
Processor 90: field transfer
Processor 91: field transfer
Processor 92: field transfer
Processor 93: field transfer
Processor 94: field transfer
Processor 95: field transfer

End

/*---------------------------------------------------------------------------*\
  =========                 |
  \\      /  F ield         | OpenFOAM: The Open Source CFD Toolbox
   \\    /   O peration     | Website:  https://openfoam.org
    \\  /    A nd           | Version:  8
     \\/     M anipulation  |
\*---------------------------------------------------------------------------*/
Build  : 8
Exec   : simpleDarcyFoam -parallel
Date   : Dec 07 2022
Time   : 14:49:52
Host   : "compute085.int.augusta.nottingham.ac.uk"
PID    : 196860
I/O    : uncollated
Case   : /gpfs01/home/pmxep5/PGSFlowTransport/tutorials/Herten/varPeclet/Dm1e-7alpha1e-5
nProcs : 96
Slaves : 
95
(
"compute085.int.augusta.nottingham.ac.uk.196861"
"compute085.int.augusta.nottingham.ac.uk.196862"
"compute085.int.augusta.nottingham.ac.uk.196863"
"compute085.int.augusta.nottingham.ac.uk.196864"
"compute085.int.augusta.nottingham.ac.uk.196865"
"compute085.int.augusta.nottingham.ac.uk.196866"
"compute085.int.augusta.nottingham.ac.uk.196867"
"compute085.int.augusta.nottingham.ac.uk.196868"
"compute085.int.augusta.nottingham.ac.uk.196869"
"compute085.int.augusta.nottingham.ac.uk.196870"
"compute085.int.augusta.nottingham.ac.uk.196871"
"compute086.int.augusta.nottingham.ac.uk.54845"
"compute086.int.augusta.nottingham.ac.uk.54846"
"compute086.int.augusta.nottingham.ac.uk.54847"
"compute086.int.augusta.nottingham.ac.uk.54848"
"compute086.int.augusta.nottingham.ac.uk.54849"
"compute086.int.augusta.nottingham.ac.uk.54850"
"compute086.int.augusta.nottingham.ac.uk.54851"
"compute086.int.augusta.nottingham.ac.uk.54852"
"compute086.int.augusta.nottingham.ac.uk.54853"
"compute086.int.augusta.nottingham.ac.uk.54854"
"compute086.int.augusta.nottingham.ac.uk.54855"
"compute086.int.augusta.nottingham.ac.uk.54856"
"compute087.int.augusta.nottingham.ac.uk.262874"
"compute087.int.augusta.nottingham.ac.uk.262875"
"compute087.int.augusta.nottingham.ac.uk.262876"
"compute087.int.augusta.nottingham.ac.uk.262877"
"compute087.int.augusta.nottingham.ac.uk.262878"
"compute087.int.augusta.nottingham.ac.uk.262879"
"compute087.int.augusta.nottingham.ac.uk.262880"
"compute087.int.augusta.nottingham.ac.uk.262881"
"compute087.int.augusta.nottingham.ac.uk.262882"
"compute087.int.augusta.nottingham.ac.uk.262883"
"compute087.int.augusta.nottingham.ac.uk.262884"
"compute087.int.augusta.nottingham.ac.uk.262885"
"compute088.int.augusta.nottingham.ac.uk.24602"
"compute088.int.augusta.nottingham.ac.uk.24603"
"compute088.int.augusta.nottingham.ac.uk.24604"
"compute088.int.augusta.nottingham.ac.uk.24605"
"compute088.int.augusta.nottingham.ac.uk.24606"
"compute088.int.augusta.nottingham.ac.uk.24607"
"compute088.int.augusta.nottingham.ac.uk.24608"
"compute088.int.augusta.nottingham.ac.uk.24609"
"compute088.int.augusta.nottingham.ac.uk.24610"
"compute088.int.augusta.nottingham.ac.uk.24611"
"compute088.int.augusta.nottingham.ac.uk.24612"
"compute088.int.augusta.nottingham.ac.uk.24613"
"compute089.int.augusta.nottingham.ac.uk.197146"
"compute089.int.augusta.nottingham.ac.uk.197147"
"compute089.int.augusta.nottingham.ac.uk.197148"
"compute089.int.augusta.nottingham.ac.uk.197149"
"compute089.int.augusta.nottingham.ac.uk.197150"
"compute089.int.augusta.nottingham.ac.uk.197151"
"compute089.int.augusta.nottingham.ac.uk.197152"
"compute089.int.augusta.nottingham.ac.uk.197153"
"compute089.int.augusta.nottingham.ac.uk.197154"
"compute089.int.augusta.nottingham.ac.uk.197155"
"compute089.int.augusta.nottingham.ac.uk.197156"
"compute089.int.augusta.nottingham.ac.uk.197157"
"compute090.int.augusta.nottingham.ac.uk.40812"
"compute090.int.augusta.nottingham.ac.uk.40813"
"compute090.int.augusta.nottingham.ac.uk.40814"
"compute090.int.augusta.nottingham.ac.uk.40815"
"compute090.int.augusta.nottingham.ac.uk.40816"
"compute090.int.augusta.nottingham.ac.uk.40817"
"compute090.int.augusta.nottingham.ac.uk.40818"
"compute090.int.augusta.nottingham.ac.uk.40819"
"compute090.int.augusta.nottingham.ac.uk.40820"
"compute090.int.augusta.nottingham.ac.uk.40821"
"compute090.int.augusta.nottingham.ac.uk.40822"
"compute090.int.augusta.nottingham.ac.uk.40823"
"compute091.int.augusta.nottingham.ac.uk.43195"
"compute091.int.augusta.nottingham.ac.uk.43196"
"compute091.int.augusta.nottingham.ac.uk.43197"
"compute091.int.augusta.nottingham.ac.uk.43198"
"compute091.int.augusta.nottingham.ac.uk.43199"
"compute091.int.augusta.nottingham.ac.uk.43200"
"compute091.int.augusta.nottingham.ac.uk.43201"
"compute091.int.augusta.nottingham.ac.uk.43202"
"compute091.int.augusta.nottingham.ac.uk.43203"
"compute091.int.augusta.nottingham.ac.uk.43204"
"compute091.int.augusta.nottingham.ac.uk.43205"
"compute091.int.augusta.nottingham.ac.uk.43206"
"compute092.int.augusta.nottingham.ac.uk.210523"
"compute092.int.augusta.nottingham.ac.uk.210524"
"compute092.int.augusta.nottingham.ac.uk.210525"
"compute092.int.augusta.nottingham.ac.uk.210526"
"compute092.int.augusta.nottingham.ac.uk.210527"
"compute092.int.augusta.nottingham.ac.uk.210528"
"compute092.int.augusta.nottingham.ac.uk.210529"
"compute092.int.augusta.nottingham.ac.uk.210530"
"compute092.int.augusta.nottingham.ac.uk.210531"
"compute092.int.augusta.nottingham.ac.uk.210532"
"compute092.int.augusta.nottingham.ac.uk.210533"
"compute092.int.augusta.nottingham.ac.uk.210534"
)

Pstream initialized with:
    floatTransfer      : 0
    nProcsSimpleSum    : 0
    commsType          : nonBlocking
    polling iterations : 0
sigFpe : Enabling floating point exception trapping (FOAM_SIGFPE).
fileModificationChecking : Monitoring run-time modified files using timeStampMaster (fileModificationSkew 10)
allowSystemOperations : Allowing user-supplied system call operations

// * * * * * * * * * * * * * * * * * * * * * * * * * * * * * * * * * * * * * //
Create time

Create mesh for time = 0


SIMPLE: Convergence criteria found
        p: tolerance 1e-10
        c: tolerance 1e-10


Reading g

Reading field p

Reading transportProperties

Reading field K

Reading/calculating face flux field phi

No finite volume options present

Starting time loop

Time = 100

DICPBiCGStab:  Solving for p, Initial residual = 1, Final residual = 9.6644e-07, No Iterations 501
Mean velocity  = (0.000273321 1.48838e-07 1.13263e-06)

ExecutionTime = 5.9 s  ClockTime = 6 s

Time = 200

DICPBiCGStab:  Solving for p, Initial residual = 5.12367e-07, Final residual = 4.40975e-13, No Iterations 403
Mean velocity  = (0.000273324 1.5024e-07 1.13147e-06)

ExecutionTime = 9.5 s  ClockTime = 9 s

Time = 300

DICPBiCGStab:  Solving for p, Initial residual = 5.0836e-13, Final residual = 4.52373e-16, No Iterations 247
Mean velocity  = (0.000273324 1.5024e-07 1.13147e-06)

ExecutionTime = 11.87 s  ClockTime = 12 s


SIMPLE solution converged in 300 iterations

End

Finalising parallel run
/*---------------------------------------------------------------------------*\
  =========                 |
  \\      /  F ield         | OpenFOAM: The Open Source CFD Toolbox
   \\    /   O peration     | Website:  https://openfoam.org
    \\  /    A nd           | Version:  8
     \\/     M anipulation  |
\*---------------------------------------------------------------------------*/
Build  : 8
Exec   : macroScalarTransport -parallel
Date   : Dec 07 2022
Time   : 14:52:50
Host   : "compute085.int.augusta.nottingham.ac.uk"
PID    : 198558
I/O    : uncollated
Case   : /gpfs01/home/pmxep5/PGSFlowTransport/tutorials/Herten/varPeclet/Dm1e-7alpha1e-5
nProcs : 96
Slaves : 
95
(
"compute085.int.augusta.nottingham.ac.uk.198559"
"compute085.int.augusta.nottingham.ac.uk.198560"
"compute085.int.augusta.nottingham.ac.uk.198561"
"compute085.int.augusta.nottingham.ac.uk.198562"
"compute085.int.augusta.nottingham.ac.uk.198563"
"compute085.int.augusta.nottingham.ac.uk.198564"
"compute085.int.augusta.nottingham.ac.uk.198565"
"compute085.int.augusta.nottingham.ac.uk.198566"
"compute085.int.augusta.nottingham.ac.uk.198567"
"compute085.int.augusta.nottingham.ac.uk.198568"
"compute085.int.augusta.nottingham.ac.uk.198569"
"compute086.int.augusta.nottingham.ac.uk.55100"
"compute086.int.augusta.nottingham.ac.uk.55101"
"compute086.int.augusta.nottingham.ac.uk.55102"
"compute086.int.augusta.nottingham.ac.uk.55103"
"compute086.int.augusta.nottingham.ac.uk.55104"
"compute086.int.augusta.nottingham.ac.uk.55105"
"compute086.int.augusta.nottingham.ac.uk.55106"
"compute086.int.augusta.nottingham.ac.uk.55107"
"compute086.int.augusta.nottingham.ac.uk.55108"
"compute086.int.augusta.nottingham.ac.uk.55109"
"compute086.int.augusta.nottingham.ac.uk.55110"
"compute086.int.augusta.nottingham.ac.uk.55111"
"compute087.int.augusta.nottingham.ac.uk.263106"
"compute087.int.augusta.nottingham.ac.uk.263107"
"compute087.int.augusta.nottingham.ac.uk.263108"
"compute087.int.augusta.nottingham.ac.uk.263109"
"compute087.int.augusta.nottingham.ac.uk.263110"
"compute087.int.augusta.nottingham.ac.uk.263111"
"compute087.int.augusta.nottingham.ac.uk.263112"
"compute087.int.augusta.nottingham.ac.uk.263113"
"compute087.int.augusta.nottingham.ac.uk.263114"
"compute087.int.augusta.nottingham.ac.uk.263115"
"compute087.int.augusta.nottingham.ac.uk.263116"
"compute087.int.augusta.nottingham.ac.uk.263117"
"compute088.int.augusta.nottingham.ac.uk.24861"
"compute088.int.augusta.nottingham.ac.uk.24862"
"compute088.int.augusta.nottingham.ac.uk.24863"
"compute088.int.augusta.nottingham.ac.uk.24864"
"compute088.int.augusta.nottingham.ac.uk.24865"
"compute088.int.augusta.nottingham.ac.uk.24866"
"compute088.int.augusta.nottingham.ac.uk.24867"
"compute088.int.augusta.nottingham.ac.uk.24868"
"compute088.int.augusta.nottingham.ac.uk.24869"
"compute088.int.augusta.nottingham.ac.uk.24870"
"compute088.int.augusta.nottingham.ac.uk.24871"
"compute088.int.augusta.nottingham.ac.uk.24872"
"compute089.int.augusta.nottingham.ac.uk.197399"
"compute089.int.augusta.nottingham.ac.uk.197400"
"compute089.int.augusta.nottingham.ac.uk.197401"
"compute089.int.augusta.nottingham.ac.uk.197402"
"compute089.int.augusta.nottingham.ac.uk.197403"
"compute089.int.augusta.nottingham.ac.uk.197404"
"compute089.int.augusta.nottingham.ac.uk.197405"
"compute089.int.augusta.nottingham.ac.uk.197406"
"compute089.int.augusta.nottingham.ac.uk.197407"
"compute089.int.augusta.nottingham.ac.uk.197408"
"compute089.int.augusta.nottingham.ac.uk.197409"
"compute089.int.augusta.nottingham.ac.uk.197410"
"compute090.int.augusta.nottingham.ac.uk.41067"
"compute090.int.augusta.nottingham.ac.uk.41068"
"compute090.int.augusta.nottingham.ac.uk.41069"
"compute090.int.augusta.nottingham.ac.uk.41070"
"compute090.int.augusta.nottingham.ac.uk.41071"
"compute090.int.augusta.nottingham.ac.uk.41072"
"compute090.int.augusta.nottingham.ac.uk.41073"
"compute090.int.augusta.nottingham.ac.uk.41074"
"compute090.int.augusta.nottingham.ac.uk.41075"
"compute090.int.augusta.nottingham.ac.uk.41076"
"compute090.int.augusta.nottingham.ac.uk.41077"
"compute090.int.augusta.nottingham.ac.uk.41078"
"compute091.int.augusta.nottingham.ac.uk.43457"
"compute091.int.augusta.nottingham.ac.uk.43458"
"compute091.int.augusta.nottingham.ac.uk.43459"
"compute091.int.augusta.nottingham.ac.uk.43460"
"compute091.int.augusta.nottingham.ac.uk.43461"
"compute091.int.augusta.nottingham.ac.uk.43462"
"compute091.int.augusta.nottingham.ac.uk.43463"
"compute091.int.augusta.nottingham.ac.uk.43464"
"compute091.int.augusta.nottingham.ac.uk.43465"
"compute091.int.augusta.nottingham.ac.uk.43466"
"compute091.int.augusta.nottingham.ac.uk.43467"
"compute091.int.augusta.nottingham.ac.uk.43468"
"compute092.int.augusta.nottingham.ac.uk.210750"
"compute092.int.augusta.nottingham.ac.uk.210751"
"compute092.int.augusta.nottingham.ac.uk.210752"
"compute092.int.augusta.nottingham.ac.uk.210753"
"compute092.int.augusta.nottingham.ac.uk.210754"
"compute092.int.augusta.nottingham.ac.uk.210755"
"compute092.int.augusta.nottingham.ac.uk.210756"
"compute092.int.augusta.nottingham.ac.uk.210757"
"compute092.int.augusta.nottingham.ac.uk.210758"
"compute092.int.augusta.nottingham.ac.uk.210759"
"compute092.int.augusta.nottingham.ac.uk.210760"
"compute092.int.augusta.nottingham.ac.uk.210761"
)

Pstream initialized with:
    floatTransfer      : 0
    nProcsSimpleSum    : 0
    commsType          : nonBlocking
    polling iterations : 0
sigFpe : Enabling floating point exception trapping (FOAM_SIGFPE).
fileModificationChecking : Monitoring run-time modified files using timeStampMaster (fileModificationSkew 10)
allowSystemOperations : Allowing user-supplied system call operations

// * * * * * * * * * * * * * * * * * * * * * * * * * * * * * * * * * * * * * //
Create time

Create mesh for time = 0


SIMPLE: Convergence criteria found
        p: tolerance 1e-10
        c: tolerance 1e-10

Reading field c

Reading field U

Reading transportProperties

Reading diffusivity Dm

Reading outlet name

Reading porosity phi

Reading mechanical disp coeff alpha

Reading mechanical disp coeff alphaT

Reading controlDict

Reading/calculating face flux field q

No finite volume options present

Calculating scalar transport

Courant Number mean: 0.583838 max: 8.06066
Mean vel = (0.000273324 1.5024e-07 1.13147e-06)

Adaptive time = 9.92457
DILUPBiCGStab:  Solving for c, Initial residual = 1, Final residual = 1.0655e-11, No Iterations 3
Total mass = 0.635395
Flux out = 0

Adaptive time = 19.8491
DILUPBiCGStab:  Solving for c, Initial residual = 0.201762, Final residual = 1.52818e-11, No Iterations 2
Total mass = 1.27056
Flux out = 1.42674e-193

Adaptive time = 29.7737
DILUPBiCGStab:  Solving for c, Initial residual = 0.112254, Final residual = 9.68504e-12, No Iterations 2
Total mass = 1.90548
Flux out = 1.97429e-191

Adaptive time = 39.6983
DILUPBiCGStab:  Solving for c, Initial residual = 0.0778057, Final residual = 7.39443e-12, No Iterations 2
Total mass = 2.54018
Flux out = 1.32071e-189

Adaptive time = 49.6229
DILUPBiCGStab:  Solving for c, Initial residual = 0.0595625, Final residual = 6.03613e-12, No Iterations 2
Total mass = 3.1747
Flux out = 5.8565e-188

Adaptive time = 59.5474
DILUPBiCGStab:  Solving for c, Initial residual = 0.0482677, Final residual = 5.08289e-12, No Iterations 2
Total mass = 3.80908
Flux out = 1.95048e-186

Adaptive time = 69.472
DILUPBiCGStab:  Solving for c, Initial residual = 0.0405864, Final residual = 4.35753e-12, No Iterations 2
Total mass = 4.44336
Flux out = 5.21587e-185

Adaptive time = 79.3966
DILUPBiCGStab:  Solving for c, Initial residual = 0.0350244, Final residual = 3.81433e-12, No Iterations 2
Total mass = 5.07755
Flux out = 1.16754e-183

Adaptive time = 89.3212
DILUPBiCGStab:  Solving for c, Initial residual = 0.0308093, Final residual = 3.35904e-12, No Iterations 2
Total mass = 5.71166
Flux out = 2.25089e-182

Adaptive time = 99.2457
DILUPBiCGStab:  Solving for c, Initial residual = 0.0275057, Final residual = 2.94366e-12, No Iterations 2
Total mass = 6.34573
Flux out = 3.81582e-181

Adaptive time = 109.17
DILUPBiCGStab:  Solving for c, Initial residual = 0.0248459, Final residual = 2.51982e-12, No Iterations 2
Total mass = 6.97974
Flux out = 5.77893e-180

Adaptive time = 119.095
DILUPBiCGStab:  Solving for c, Initial residual = 0.0226589, Final residual = 2.1061e-12, No Iterations 2
Total mass = 7.61372
Flux out = 7.91683e-179

Adaptive time = 129.019
DILUPBiCGStab:  Solving for c, Initial residual = 0.0208282, Final residual = 1.73056e-12, No Iterations 2
Total mass = 8.24767
Flux out = 9.91022e-178

Adaptive time = 138.944
DILUPBiCGStab:  Solving for c, Initial residual = 0.0192737, Final residual = 1.41676e-12, No Iterations 2
Total mass = 8.88158
Flux out = 1.14305e-176

Adaptive time = 148.869
DILUPBiCGStab:  Solving for c, Initial residual = 0.0179372, Final residual = 1.17482e-12, No Iterations 2
Total mass = 9.51548
Flux out = 1.22334e-175

Adaptive time = 158.793
DILUPBiCGStab:  Solving for c, Initial residual = 0.016776, Final residual = 1.0024e-12, No Iterations 2
Total mass = 10.1493
Flux out = 1.22214e-174

Adaptive time = 168.718
DILUPBiCGStab:  Solving for c, Initial residual = 0.0157573, Final residual = 8.97243e-13, No Iterations 2
Total mass = 10.7832
Flux out = 1.14559e-173

Adaptive time = 178.642
DILUPBiCGStab:  Solving for c, Initial residual = 0.0148566, Final residual = 8.54353e-13, No Iterations 2
Total mass = 11.417
Flux out = 1.01213e-172

Adaptive time = 188.567
DILUPBiCGStab:  Solving for c, Initial residual = 0.0140547, Final residual = 8.1948e-13, No Iterations 2
Total mass = 12.0509
Flux out = 8.46187e-172

Adaptive time = 198.491
DILUPBiCGStab:  Solving for c, Initial residual = 0.0133358, Final residual = 7.82104e-13, No Iterations 2
Total mass = 12.6847
Flux out = 6.71819e-171

Adaptive time = 208.416
DILUPBiCGStab:  Solving for c, Initial residual = 0.0126879, Final residual = 7.43437e-13, No Iterations 2
Total mass = 13.3185
Flux out = 5.08126e-170

Adaptive time = 218.341
DILUPBiCGStab:  Solving for c, Initial residual = 0.0121009, Final residual = 7.04169e-13, No Iterations 2
Total mass = 13.9523
Flux out = 3.67167e-169

Adaptive time = 228.265
DILUPBiCGStab:  Solving for c, Initial residual = 0.0115666, Final residual = 6.65565e-13, No Iterations 2
Total mass = 14.586
Flux out = 2.54131e-168

Adaptive time = 238.19
DILUPBiCGStab:  Solving for c, Initial residual = 0.0110783, Final residual = 6.29445e-13, No Iterations 2
Total mass = 15.2198
Flux out = 1.68883e-167

Adaptive time = 248.114
DILUPBiCGStab:  Solving for c, Initial residual = 0.0106301, Final residual = 5.99599e-13, No Iterations 2
Total mass = 15.8536
Flux out = 1.07992e-166

Adaptive time = 258.039
DILUPBiCGStab:  Solving for c, Initial residual = 0.0102172, Final residual = 5.84091e-13, No Iterations 2
Total mass = 16.4873
Flux out = 6.65826e-166

Adaptive time = 267.963
DILUPBiCGStab:  Solving for c, Initial residual = 0.00983594, Final residual = 5.89964e-13, No Iterations 2
Total mass = 17.1211
Flux out = 3.96557e-165

Adaptive time = 277.888
DILUPBiCGStab:  Solving for c, Initial residual = 0.00948256, Final residual = 6.07166e-13, No Iterations 2
Total mass = 17.7548
Flux out = 2.28556e-164

Adaptive time = 287.813
DILUPBiCGStab:  Solving for c, Initial residual = 0.00915412, Final residual = 6.36524e-13, No Iterations 2
Total mass = 18.3885
Flux out = 1.27686e-163

Adaptive time = 297.737
DILUPBiCGStab:  Solving for c, Initial residual = 0.00884814, Final residual = 6.7835e-13, No Iterations 2
Total mass = 19.0222
Flux out = 6.92534e-163

Adaptive time = 307.662
DILUPBiCGStab:  Solving for c, Initial residual = 0.00856229, Final residual = 7.32596e-13, No Iterations 2
Total mass = 19.656
Flux out = 3.65206e-162

Adaptive time = 317.586
DILUPBiCGStab:  Solving for c, Initial residual = 0.00829476, Final residual = 7.96834e-13, No Iterations 2
Total mass = 20.2897
Flux out = 1.87525e-161

Adaptive time = 327.511
DILUPBiCGStab:  Solving for c, Initial residual = 0.00804384, Final residual = 8.67939e-13, No Iterations 2
Total mass = 20.9234
Flux out = 9.38874e-161

Adaptive time = 337.435
DILUPBiCGStab:  Solving for c, Initial residual = 0.00780794, Final residual = 9.4344e-13, No Iterations 2
Total mass = 21.5571
Flux out = 4.58953e-160

Adaptive time = 347.36
DILUPBiCGStab:  Solving for c, Initial residual = 0.00758582, Final residual = 1.02003e-12, No Iterations 2
Total mass = 22.1908
Flux out = 2.19339e-159

Adaptive time = 357.285
DILUPBiCGStab:  Solving for c, Initial residual = 0.00737628, Final residual = 1.09643e-12, No Iterations 2
Total mass = 22.8245
Flux out = 1.02615e-158

Adaptive time = 367.209
DILUPBiCGStab:  Solving for c, Initial residual = 0.00717822, Final residual = 1.16833e-12, No Iterations 2
Total mass = 23.4582
Flux out = 4.70548e-158

Adaptive time = 377.134
DILUPBiCGStab:  Solving for c, Initial residual = 0.00699085, Final residual = 1.2339e-12, No Iterations 2
Total mass = 24.0919
Flux out = 2.11763e-157

Adaptive time = 387.058
DILUPBiCGStab:  Solving for c, Initial residual = 0.00681325, Final residual = 1.29214e-12, No Iterations 2
Total mass = 24.7255
Flux out = 9.36465e-157

Adaptive time = 396.983
DILUPBiCGStab:  Solving for c, Initial residual = 0.00664466, Final residual = 1.34433e-12, No Iterations 2
Total mass = 25.3592
Flux out = 4.07446e-156

Adaptive time = 406.908
DILUPBiCGStab:  Solving for c, Initial residual = 0.00648449, Final residual = 1.39049e-12, No Iterations 2
Total mass = 25.9929
Flux out = 1.74632e-155

Adaptive time = 416.832
DILUPBiCGStab:  Solving for c, Initial residual = 0.00633206, Final residual = 1.43112e-12, No Iterations 2
Total mass = 26.6266
Flux out = 7.38224e-155

Adaptive time = 426.757
DILUPBiCGStab:  Solving for c, Initial residual = 0.00618679, Final residual = 1.46759e-12, No Iterations 2
Total mass = 27.2602
Flux out = 3.08168e-154

Adaptive time = 436.681
DILUPBiCGStab:  Solving for c, Initial residual = 0.0060483, Final residual = 1.50107e-12, No Iterations 2
Total mass = 27.8939
Flux out = 1.27186e-153

Adaptive time = 446.606
DILUPBiCGStab:  Solving for c, Initial residual = 0.00591606, Final residual = 1.53292e-12, No Iterations 2
Total mass = 28.5276
Flux out = 5.19566e-153

Adaptive time = 456.53
DILUPBiCGStab:  Solving for c, Initial residual = 0.00578961, Final residual = 1.56508e-12, No Iterations 2
Total mass = 29.1612
Flux out = 2.10318e-152

Adaptive time = 466.455
DILUPBiCGStab:  Solving for c, Initial residual = 0.00566866, Final residual = 1.59873e-12, No Iterations 2
Total mass = 29.7949
Flux out = 8.44493e-152

Adaptive time = 476.38
DILUPBiCGStab:  Solving for c, Initial residual = 0.00555281, Final residual = 1.63496e-12, No Iterations 2
Total mass = 30.4285
Flux out = 3.36686e-151

Adaptive time = 486.304
DILUPBiCGStab:  Solving for c, Initial residual = 0.00544172, Final residual = 1.67511e-12, No Iterations 2
Total mass = 31.0622
Flux out = 1.33398e-150

Adaptive time = 496.229
DILUPBiCGStab:  Solving for c, Initial residual = 0.00533519, Final residual = 1.72086e-12, No Iterations 2
Total mass = 31.6958
Flux out = 5.25669e-150

Adaptive time = 506.153
DILUPBiCGStab:  Solving for c, Initial residual = 0.00523288, Final residual = 1.77297e-12, No Iterations 2
Total mass = 32.3295
Flux out = 2.06168e-149

Adaptive time = 516.078
DILUPBiCGStab:  Solving for c, Initial residual = 0.00513452, Final residual = 1.83262e-12, No Iterations 2
Total mass = 32.9631
Flux out = 8.05258e-149

Adaptive time = 526.002
DILUPBiCGStab:  Solving for c, Initial residual = 0.00503997, Final residual = 1.90125e-12, No Iterations 2
Total mass = 33.5968
Flux out = 3.13383e-148

Adaptive time = 535.927
DILUPBiCGStab:  Solving for c, Initial residual = 0.00494896, Final residual = 1.9801e-12, No Iterations 2
Total mass = 34.2304
Flux out = 1.21569e-147

Adaptive time = 545.852
DILUPBiCGStab:  Solving for c, Initial residual = 0.00486127, Final residual = 2.0696e-12, No Iterations 2
Total mass = 34.864
Flux out = 4.70248e-147

Adaptive time = 555.776
DILUPBiCGStab:  Solving for c, Initial residual = 0.00477679, Final residual = 2.16988e-12, No Iterations 2
Total mass = 35.4977
Flux out = 1.8143e-146

Adaptive time = 565.701
DILUPBiCGStab:  Solving for c, Initial residual = 0.0046953, Final residual = 2.27906e-12, No Iterations 2
Total mass = 36.1313
Flux out = 6.98339e-146

Adaptive time = 575.625
DILUPBiCGStab:  Solving for c, Initial residual = 0.00461662, Final residual = 2.39379e-12, No Iterations 2
Total mass = 36.7649
Flux out = 2.68213e-145

Adaptive time = 585.55
DILUPBiCGStab:  Solving for c, Initial residual = 0.00454067, Final residual = 2.50994e-12, No Iterations 2
Total mass = 37.3986
Flux out = 1.02806e-144

Adaptive time = 595.474
DILUPBiCGStab:  Solving for c, Initial residual = 0.00446729, Final residual = 2.62357e-12, No Iterations 2
Total mass = 38.0322
Flux out = 3.93313e-144

Adaptive time = 605.399
DILUPBiCGStab:  Solving for c, Initial residual = 0.00439631, Final residual = 2.73271e-12, No Iterations 2
Total mass = 38.6658
Flux out = 1.5021e-143

Adaptive time = 615.324
DILUPBiCGStab:  Solving for c, Initial residual = 0.00432767, Final residual = 2.83848e-12, No Iterations 2
Total mass = 39.2994
Flux out = 5.72725e-143

Adaptive time = 625.248
DILUPBiCGStab:  Solving for c, Initial residual = 0.00426125, Final residual = 2.9453e-12, No Iterations 2
Total mass = 39.9331
Flux out = 2.18037e-142

Adaptive time = 635.173
DILUPBiCGStab:  Solving for c, Initial residual = 0.0041969, Final residual = 3.05528e-12, No Iterations 2
Total mass = 40.5667
Flux out = 8.28882e-142

Adaptive time = 645.097
DILUPBiCGStab:  Solving for c, Initial residual = 0.00413456, Final residual = 3.16562e-12, No Iterations 2
Total mass = 41.2003
Flux out = 3.14688e-141

Adaptive time = 655.022
DILUPBiCGStab:  Solving for c, Initial residual = 0.00407414, Final residual = 3.26623e-12, No Iterations 2
Total mass = 41.8339
Flux out = 1.19325e-140

Adaptive time = 664.946
DILUPBiCGStab:  Solving for c, Initial residual = 0.00401553, Final residual = 3.33965e-12, No Iterations 2
Total mass = 42.4675
Flux out = 4.5194e-140

Adaptive time = 674.871
DILUPBiCGStab:  Solving for c, Initial residual = 0.00395867, Final residual = 3.35915e-12, No Iterations 2
Total mass = 43.1011
Flux out = 1.70988e-139

Adaptive time = 684.796
DILUPBiCGStab:  Solving for c, Initial residual = 0.00390349, Final residual = 3.31093e-12, No Iterations 2
Total mass = 43.7347
Flux out = 6.46276e-139

Adaptive time = 694.72
DILUPBiCGStab:  Solving for c, Initial residual = 0.00384989, Final residual = 3.20665e-12, No Iterations 2
Total mass = 44.3684
Flux out = 2.4404e-138

Adaptive time = 704.645
DILUPBiCGStab:  Solving for c, Initial residual = 0.0037978, Final residual = 3.16497e-12, No Iterations 2
Total mass = 45.002
Flux out = 9.20704e-138

Adaptive time = 714.569
DILUPBiCGStab:  Solving for c, Initial residual = 0.00374719, Final residual = 3.32112e-12, No Iterations 2
Total mass = 45.6356
Flux out = 3.47068e-137

Adaptive time = 724.494
DILUPBiCGStab:  Solving for c, Initial residual = 0.00369797, Final residual = 4.17055e-12, No Iterations 2
Total mass = 46.2692
Flux out = 1.30725e-136

Adaptive time = 734.418
DILUPBiCGStab:  Solving for c, Initial residual = 0.00365009, Final residual = 5.81516e-12, No Iterations 2
Total mass = 46.9028
Flux out = 4.92006e-136

Adaptive time = 744.343
DILUPBiCGStab:  Solving for c, Initial residual = 0.00360352, Final residual = 8.77114e-12, No Iterations 2
Total mass = 47.5364
Flux out = 1.85036e-135

Adaptive time = 754.268
DILUPBiCGStab:  Solving for c, Initial residual = 0.00355819, Final residual = 1.4027e-11, No Iterations 2
Total mass = 48.17
Flux out = 6.95381e-135

Adaptive time = 764.192
DILUPBiCGStab:  Solving for c, Initial residual = 0.00351401, Final residual = 2.2987e-11, No Iterations 2
Total mass = 48.8036
Flux out = 2.61141e-134

Adaptive time = 774.117
DILUPBiCGStab:  Solving for c, Initial residual = 0.003471, Final residual = 4.06854e-11, No Iterations 2
Total mass = 49.4372
Flux out = 9.7997e-134

Adaptive time = 784.041
DILUPBiCGStab:  Solving for c, Initial residual = 0.0034291, Final residual = 2.42424e-14, No Iterations 3
Total mass = 50.0708
Flux out = 3.6748e-133

Adaptive time = 793.966
DILUPBiCGStab:  Solving for c, Initial residual = 0.00338824, Final residual = 2.13546e-14, No Iterations 3
Total mass = 50.7044
Flux out = 1.37698e-132

Adaptive time = 803.89
DILUPBiCGStab:  Solving for c, Initial residual = 0.0033484, Final residual = 5.38908e-11, No Iterations 2
Total mass = 51.338
Flux out = 5.15569e-132

Adaptive time = 813.815
DILUPBiCGStab:  Solving for c, Initial residual = 0.00330955, Final residual = 3.42176e-11, No Iterations 2
Total mass = 51.9715
Flux out = 1.92882e-131

Adaptive time = 823.74
DILUPBiCGStab:  Solving for c, Initial residual = 0.00327163, Final residual = 2.53639e-11, No Iterations 2
Total mass = 52.6051
Flux out = 7.20974e-131

Adaptive time = 833.664
DILUPBiCGStab:  Solving for c, Initial residual = 0.00323462, Final residual = 2.04223e-11, No Iterations 2
Total mass = 53.2387
Flux out = 2.69242e-130

Adaptive time = 843.589
DILUPBiCGStab:  Solving for c, Initial residual = 0.00319851, Final residual = 1.7588e-11, No Iterations 2
Total mass = 53.8723
Flux out = 1.00445e-129

Adaptive time = 853.513
DILUPBiCGStab:  Solving for c, Initial residual = 0.00316323, Final residual = 1.60439e-11, No Iterations 2
Total mass = 54.5059
Flux out = 3.74312e-129

Adaptive time = 863.438
DILUPBiCGStab:  Solving for c, Initial residual = 0.00312877, Final residual = 1.52292e-11, No Iterations 2
Total mass = 55.1395
Flux out = 1.3932e-128

Adaptive time = 873.362
DILUPBiCGStab:  Solving for c, Initial residual = 0.00309511, Final residual = 1.4873e-11, No Iterations 2
Total mass = 55.7731
Flux out = 5.17858e-128

Adaptive time = 883.287
DILUPBiCGStab:  Solving for c, Initial residual = 0.00306222, Final residual = 1.50578e-11, No Iterations 2
Total mass = 56.4066
Flux out = 1.92207e-127

Adaptive time = 893.212
DILUPBiCGStab:  Solving for c, Initial residual = 0.00303005, Final residual = 1.55567e-11, No Iterations 2
Total mass = 57.0402
Flux out = 7.12236e-127

Adaptive time = 903.136
DILUPBiCGStab:  Solving for c, Initial residual = 0.0029986, Final residual = 1.60412e-11, No Iterations 2
Total mass = 57.6738
Flux out = 2.63454e-126

Adaptive time = 913.061
DILUPBiCGStab:  Solving for c, Initial residual = 0.00296784, Final residual = 1.65035e-11, No Iterations 2
Total mass = 58.3074
Flux out = 9.72603e-126

Adaptive time = 922.985
DILUPBiCGStab:  Solving for c, Initial residual = 0.00293774, Final residual = 1.69334e-11, No Iterations 2
Total mass = 58.941
Flux out = 3.58295e-125

Adaptive time = 932.91
DILUPBiCGStab:  Solving for c, Initial residual = 0.0029083, Final residual = 1.73204e-11, No Iterations 2
Total mass = 59.5745
Flux out = 1.31686e-124

Adaptive time = 942.834
DILUPBiCGStab:  Solving for c, Initial residual = 0.00287948, Final residual = 1.7655e-11, No Iterations 2
Total mass = 60.2081
Flux out = 4.82779e-124

Adaptive time = 952.759
DILUPBiCGStab:  Solving for c, Initial residual = 0.00285127, Final residual = 1.7929e-11, No Iterations 2
Total mass = 60.8417
Flux out = 1.76516e-123

Adaptive time = 962.684
DILUPBiCGStab:  Solving for c, Initial residual = 0.00282363, Final residual = 1.81371e-11, No Iterations 2
Total mass = 61.4753
Flux out = 6.43522e-123

Adaptive time = 972.608
DILUPBiCGStab:  Solving for c, Initial residual = 0.00279658, Final residual = 1.82757e-11, No Iterations 2
Total mass = 62.1088
Flux out = 2.33885e-122

Adaptive time = 982.533
DILUPBiCGStab:  Solving for c, Initial residual = 0.00277007, Final residual = 1.83433e-11, No Iterations 2
Total mass = 62.7424
Flux out = 8.47267e-122

Adaptive time = 992.457
DILUPBiCGStab:  Solving for c, Initial residual = 0.0027441, Final residual = 1.83402e-11, No Iterations 2
Total mass = 63.376
Flux out = 3.0587e-121

Adaptive time = 1002.38
DILUPBiCGStab:  Solving for c, Initial residual = 0.00271865, Final residual = 1.82684e-11, No Iterations 2
Total mass = 64.0095
Flux out = 1.1002e-120

Adaptive time = 1012.31
DILUPBiCGStab:  Solving for c, Initial residual = 0.00269371, Final residual = 1.81312e-11, No Iterations 2
Total mass = 64.6431
Flux out = 3.94237e-120

Adaptive time = 1022.23
DILUPBiCGStab:  Solving for c, Initial residual = 0.00266924, Final residual = 1.79328e-11, No Iterations 2
Total mass = 65.2767
Flux out = 1.40707e-119

Adaptive time = 1032.16
DILUPBiCGStab:  Solving for c, Initial residual = 0.00264526, Final residual = 1.76783e-11, No Iterations 2
Total mass = 65.9102
Flux out = 5.00132e-119

Adaptive time = 1042.08
DILUPBiCGStab:  Solving for c, Initial residual = 0.00262173, Final residual = 1.73737e-11, No Iterations 2
Total mass = 66.5438
Flux out = 1.7701e-118

Adaptive time = 1052
DILUPBiCGStab:  Solving for c, Initial residual = 0.00259865, Final residual = 1.70255e-11, No Iterations 2
Total mass = 67.1774
Flux out = 6.23729e-118

Adaptive time = 1061.93
DILUPBiCGStab:  Solving for c, Initial residual = 0.00257601, Final residual = 1.66395e-11, No Iterations 2
Total mass = 67.8109
Flux out = 2.18789e-117

Adaptive time = 1071.85
DILUPBiCGStab:  Solving for c, Initial residual = 0.00255379, Final residual = 1.62231e-11, No Iterations 2
Total mass = 68.4445
Flux out = 7.63895e-117

Adaptive time = 1081.78
DILUPBiCGStab:  Solving for c, Initial residual = 0.00253199, Final residual = 1.57826e-11, No Iterations 2
Total mass = 69.0781
Flux out = 2.65445e-116

Adaptive time = 1091.7
DILUPBiCGStab:  Solving for c, Initial residual = 0.00251058, Final residual = 1.53247e-11, No Iterations 2
Total mass = 69.7116
Flux out = 9.1792e-116

Adaptive time = 1101.63
DILUPBiCGStab:  Solving for c, Initial residual = 0.00248957, Final residual = 1.48551e-11, No Iterations 2
Total mass = 70.3452
Flux out = 3.15853e-115

Adaptive time = 1111.55
DILUPBiCGStab:  Solving for c, Initial residual = 0.00246893, Final residual = 1.43793e-11, No Iterations 2
Total mass = 70.9787
Flux out = 1.08139e-114

Adaptive time = 1121.48
DILUPBiCGStab:  Solving for c, Initial residual = 0.00244866, Final residual = 1.39034e-11, No Iterations 2
Total mass = 71.6123
Flux out = 3.6835e-114

Adaptive time = 1131.4
DILUPBiCGStab:  Solving for c, Initial residual = 0.00242875, Final residual = 1.34312e-11, No Iterations 2
Total mass = 72.2458
Flux out = 1.24823e-113

Adaptive time = 1141.33
DILUPBiCGStab:  Solving for c, Initial residual = 0.0024092, Final residual = 1.29657e-11, No Iterations 2
Total mass = 72.8794
Flux out = 4.20786e-113

Adaptive time = 1151.25
DILUPBiCGStab:  Solving for c, Initial residual = 0.00238998, Final residual = 1.25109e-11, No Iterations 2
Total mass = 73.5129
Flux out = 1.41102e-112

Adaptive time = 1161.18
DILUPBiCGStab:  Solving for c, Initial residual = 0.00237109, Final residual = 1.20708e-11, No Iterations 2
Total mass = 74.1465
Flux out = 4.70649e-112

Adaptive time = 1171.1
DILUPBiCGStab:  Solving for c, Initial residual = 0.00235253, Final residual = 1.16786e-11, No Iterations 2
Total mass = 74.78
Flux out = 1.56147e-111

Adaptive time = 1181.02
DILUPBiCGStab:  Solving for c, Initial residual = 0.00233429, Final residual = 1.13277e-11, No Iterations 2
Total mass = 75.4136
Flux out = 5.15263e-111

Adaptive time = 1190.95
DILUPBiCGStab:  Solving for c, Initial residual = 0.00231634, Final residual = 1.09836e-11, No Iterations 2
Total mass = 76.0471
Flux out = 1.69112e-110

Adaptive time = 1200.87
DILUPBiCGStab:  Solving for c, Initial residual = 0.0022987, Final residual = 1.06556e-11, No Iterations 2
Total mass = 76.6807
Flux out = 5.52022e-110

Adaptive time = 1210.8
[...]
[27] Concentration under the threshold
[27] 
[27] 
[44] 
[56] 
[56]     From function macroScalarTransport
[56]     in file macroScalarTransport.C at line 
[87] 
[87] --> FOAM FATAL ERROR: 
[87] Concentration under the threshold
[87] 
[87] 
[87]     From function macroScalarTransport
[87]     in file macroScalarTransport.C at line 118.
[87] 
FOAM parallel run exiting
[87] 
[68] 
[68] --> FOAM FATAL ERROR: 
[68] Concentration under the threshold
[68] 
[68] 
[68]     From function macroScalarTransport
[68]     in file macroScalarTransport.C at line 118.
[68] 
FOAM parallel run exiting
[68] 

[21] Concentration under the threshold
[21] 
[21] 
[21]     From function macroScalarTransport
[21]     in file macroScalarTransport.C at line 118.
[21] 
FOAM parallel run exiting
[21] 

[81] 
[81]     From function macroScalarTransport
[81]     in file macroScalarTransport.C at line 118.
[81] 
FOAM parallel run exiting
[81] 

[32] 
[32] --> FOAM FATAL ERROR: 
[32] Concentration under the threshold
[32] 
[32] 
[32]     From function macroScalarTransport
[32]     in file macroScalarTransport.C at line 118[43] 
[43] --> FOAM FATAL ERROR: 
[43] Concentration under the threshold
[43] 
[43] 
[43]     From function macroScalarTransport
[43]     in file macroScalarTransport.C at line 118.
[43] 
FOAM parallel run exiting
[43] 118.
[56] 
FOAM parallel run exiting
[56] 
[92] [66] 
[16] 
[16] 
[75] 
[75] 
[75] --> FOAM FATAL ERROR: 
[75] Concentration under the threshold
[75] 
[75] 
[75]     From function macroScalarTransport
[75]     in file macroScalarTransport.C at line 118.
[75] 
FOAM parallel run exiting
[75] 
[31] 
[31] 
[31] --> FOAM FATAL ERROR: 
[31] Concentration under the threshold
[31] 

[44] 
[44] --> FOAM FATAL ERROR: 
[44] Concentration under the threshold
[44] 
[44] 
[44]     From function macroScalarTransport
[44]     in file macroScalarTransport.C at line 118.
[44] 
FOAM parallel run exiting
[59] 
[59] 
[59] --> FOAM FATAL ERROR: 
[59] Concentration under the threshold
[59] 
[59] 
[59]     From function macroScalarTransport[93] [71] 
[71] 
[71] --> FOAM FATAL ERROR: 
[71] Concentration under the threshold
[71] 
[71] 
[71]     From function macroScalarTransport
[71]     in file macroScalarTransport.C[16] --> FOAM FATAL ERROR: 
[16] Concentration under the threshold
[16] 
[16] 
[16]     From function macroScalarTransport
[16]     in file macroScalarTransport.C at line 118.
[16] 
FOAM parallel run exiting
[16] 
[83] 
.
[32] 
FOAM parallel run exiting
[32] 

[0] 
[0] --> FOAM FATAL ERROR: 
[0] Concentration under the threshold
[0] 
[0] 
[0]     From function macroScalarTransport
[0]     in file macroScalarTransport.C at line 118.
[0] 
FOAM parallel run exiting
[0] 
[1] 
[1] 
[1] --> FOAM FATAL ERROR: 
[1] Concentration under the threshold
[1] 
[1] 
[1]     From function macroScalarTransport
[1]     in file macroScalarTransport.C at line 118.
[1] [2] 
[2] 
[2] --> FOAM FATAL ERROR: 
[2] Concentration under the threshold
[2] 
[2] 
[2]     From function macroScalarTransport
[2]     in file macroScalarTransport.C at line 118.
[2] 
FOAM parallel run exiting
[2] 
[6] 
[6] 
[6] --> FOAM FATAL ERROR: 
[6] Concentration under the threshold
[6] 
[6] 
[6]     From function macroScalarTransport
[6]     in file macroScalarTransport.C at line 118.
[6] 
FOAM parallel run exiting
[6] 
[8] 
[8] 
[8] --> FOAM FATAL ERROR: 
[8] Concentration under the threshold
[8] 
[8] 
[8] 

[59]     in file macroScalarTransport.C at line 118.
[59] 
FOAM parallel run exiting
[59] 
[91] 
[66] 
[66] --> FOAM FATAL ERROR: 
[66] Concentration under the threshold
[66] 
[66] 
[66]     From function macroScalarTransport
[66]     in file macroScalarTransport.C at line 118.
[66] 
FOAM parallel run exiting
[66] 
[14] 
[14] 
[14] [79] [27]     From function macroScalarTransport
[27]     in file macroScalarTransport.C at line 118.
[27] 
FOAM parallel run exiting
[27] 
    From function macroScalarTransport
[8]     in file macroScalarTransport.C at line 118.
[8] 
FOAM parallel run exiting
[8] 

FOAM parallel run exiting
[1] 
[44] 
[57] 
[93] 
[93] --> FOAM FATAL ERROR: 
[93] Concentration under the threshold
[93] 
[93] 
[93]     From function macroScalarTransport
[93]     in file macroScalarTransport.C at line 118.
[93] 
FOAM parallel run exiting
[93]  at line 118.
[71] 
FOAM parallel run exiting
[71] 
--> FOAM FATAL ERROR: 
[14] Concentration under the threshold
[14] 
[14] 
[14]     From function macroScalarTransport
[14]     in file macroScalarTransport.C at line 118.
[14] 
FOAM parallel run exiting
[14] 
[83] 
[83] --> FOAM FATAL ERROR: 
[83] Concentration under the threshold
[83] 
[83] 
[83]     From function macroScalarTransport
[83]     in file macroScalarTransport.C at line 118.
[83] 
FOAM parallel run exiting
[83] 
[31] 
[31]     From function macroScalarTransport
[31]     in file macroScalarTransport.C at line 118.
[31] 
FOAM parallel run exiting
[31] 
[42] 
[57] 
[57] --> FOAM FATAL ERROR: 
[57] Concentration under the threshold
[57] 
[57] 
[57]     From function macroScalarTransport
[92] 
[92] --> FOAM FATAL ERROR: 
[92] Concentration under the threshold
[92] 
[92] 
[92]     From function macroScalarTransport
[92]     in file macroScalarTransport.C at line 118.
[92] 
FOAM parallel run exiting
[92] 
[60] 
[60] 
[60] --> FOAM FATAL ERROR: 
[60] Concentration under the threshold
[60] 
[60] 
[60]     From function macroScalarTransport
[60]     in file macroScalarTransport.C at line 118.
[60] 
FOAM parallel run exiting
[60] 
[17] 

[79] 
[79] --> FOAM FATAL ERROR: 
[79] Concentration under the threshold
[79] 
[79] 
[79]     From function macroScalarTransport
[79]     in file macroScalarTransport.C at line 118.
[79] 
FOAM parallel run exiting
[79] 
[29] 
[42] 
[57]     in file macroScalarTransport.C at line 118.
[57] 
FOAM parallel run exiting
[57] 

[62] 
[62] 
[62] --> FOAM FATAL ERROR: 
[62] Concentration under the threshold
[62] [73] 
[29] 
[29] --> FOAM FATAL ERROR: 
[29] Concentration under the threshold
[29] 
[29] 
[29] [9] 
[9] 
[9] --> FOAM FATAL ERROR: 
[9] Concentration under the threshold
[9] 
[9] 
[9]     From function macroScalarTransport
[9]     in file macroScalarTransport.C at line 118.
[9] 
FOAM parallel run exiting
[9] 

[42] --> FOAM FATAL ERROR: 
[42] Concentration under the threshold
[42] 
[42] 
[42]     From function macroScalarTransport
[42] [49] [90] 
[90] 
[90] --> FOAM FATAL ERROR: 
[90] Concentration under the threshold
[90] 
[90] 
[90]     From function 
[62] 
[62]     From function macroScalarTransport
[62]     in file macroScalarTransport.C at line 118.
[62] 
FOAM parallel run exiting
[62] 
[17] 
[17] --> FOAM FATAL ERROR: 
[17] Concentration under the threshold
[17] 
[17] 
[17]     From function macroScalarTransport
[17]     in file macroScalarTransport.C at line 118.
[17] 
FOAM parallel run exiting
[17] 

[73] 
[73] --> FOAM FATAL ERROR: 
[73] Concentration under the threshold
[73] 
[73] 
[73]     From function macroScalarTransport
[73]     in file macroScalarTransport.C at line 118.
[73] 
FOAM parallel run exiting
    From function macroScalarTransport
[29]     in file macroScalarTransport.C at line 118.
[29] 
FOAM parallel run exiting
[29] 
[7] 
[7] 
[7] --> FOAM FATAL ERROR: 
[7] Concentration under the threshold
[7] 
[7] 
[7]     From function macroScalarTransport
[7]     in file macroScalarTransport.C at line 118.
[7] 
FOAM parallel run exiting
[7] 
    in file macroScalarTransport.C at line 118.
[42] 
FOAM parallel run exiting
[42] 

[49] 
[49] --> FOAM FATAL ERROR: 
[49] Concentration under the threshold
[49] 
[49] 
[49]     From function macroScalarTransport
[49]     in file macroScalarTransport.C at line 118.
[49] 
FOAM parallel run exiting
macroScalarTransport
[90]     in file macroScalarTransport.C at line 118.
[90] 
FOAM parallel run exiting
[90] 
[65] [18] [73] 
[30] 
[30] 
[30] --> FOAM FATAL ERROR: [38] [49] 
[89] 
[65] 
[65] --> FOAM FATAL ERROR: 
[65] Concentration under the threshold
[65] 
[65] 
[65]     From function macroScalarTransport
[65] 
[18] 
[18] --> FOAM FATAL ERROR: 
[18] Concentration under the threshold
[18] 
[18] 
[18]     From function macroScalarTransport
[18]     in file macroScalarTransport.C at line 118.
[18] 
FOAM parallel run exiting
[18] 
[78] 
[78] 
[78] --> FOAM FATAL ERROR: 
[78] Concentration under the threshold
[78] 
[30] Concentration under the threshold
[30] 
[30] 
[30]     From function macroScalarTransport
[30]     in file macroScalarTransport.C at line 118.
[30] 
FOAM parallel run exiting
[30] [10] 
[10] 
[10] --> FOAM FATAL ERROR: 
[10] Concentration under the threshold
[10] 
[10] 
[10]     From function macroScalarTransport
[10]     in file macroScalarTransport.C at line 118.
[38] [51] 
[51] 
[51] --> FOAM FATAL ERROR: 
[51] 
[89] 
[89] --> FOAM FATAL ERROR: 
[89] Concentration under the threshold
[89] 
[89] 
    in file macroScalarTransport.C at line 118.
[65] 
FOAM parallel run exiting
[65] 
[13] 

[78] 
[78]     From function macroScalarTransport
[78]     in file macroScalarTransport.C at line 118.
[78] 
FOAM parallel run exiting
[78] 


[10] 
FOAM parallel run exiting
[10] 

[38] --> FOAM FATAL ERROR: 
[38] Concentration under the threshold
[38] 
[38] 
[38]     From function macroScalarTransport
[38] Concentration under the threshold
[51] 
[51] 
[51]     From function macroScalarTransport
[51]     in file macroScalarTransport.C at line 118.
[51] 
FOAM parallel run exiting
[51] 
[89]     From function macroScalarTransport
[89]     in file macroScalarTransport.C at line 118.[70] [13] 
[13] --> FOAM FATAL ERROR: 
[13] Concentration under the threshold
[13] 
[13] 
[13]     From function macroScalarTransport
[13]     in file macroScalarTransport.C at line 118.
[13] 
FOAM parallel run exiting
[13] 
[82] [28]     in file macroScalarTransport.C at line 118.
[38] 
FOAM parallel run exiting
[38] 
[54] 
[89] 
FOAM parallel run exiting
[89] 

[70] [22] 

[82] 
[82] --> FOAM FATAL ERROR: 
[82] Concentration under the threshold
[82] 
[82] 
[82]     From function macroScalarTransport
[82]     in file macroScalarTransport.C at line 118.
[28] 
[28] [37] 
[54] 
[54] --> FOAM FATAL ERROR: 
[54] Concentration under the threshold
[54] 
[54] 
[54]     From function macroScalarTransport
[54]     in file macroScalarTransport.C at line 118.
[54] [94] 
[70] --> FOAM FATAL ERROR: 
[70] Concentration under the threshold
[70] 
[70] 
[70]     From function macroScalarTransport
[70] [22] 
[22] --> FOAM FATAL ERROR: 
[22] Concentration under the threshold
[22] 
[22] 
[22]     From function macroScalarTransport
[22]     in file macroScalarTransport.C at line 118.
[22] 
FOAM parallel run exiting
[22] 

[82] 
FOAM parallel run exiting
[82] 
--> FOAM FATAL ERROR: 
[28] Concentration under the threshold
[28] 
[28] 
[28]     From function macroScalarTransport
[28]     in file macroScalarTransport.C at line 118.
[28] 
[37] 
[37] --> FOAM FATAL ERROR: 
[37] Concentration under the threshold
[37] 
[37] 

FOAM parallel run exiting
[54] 

[94] 
[94] --> FOAM FATAL ERROR: 
[94] Concentration under the threshold
[94] 
[94] 
    in file macroScalarTransport.C at line 118.
[70] 
FOAM parallel run exiting
[70] 
[12] 
[12] 
[12] --> FOAM FATAL ERROR: 
[12] Concentration under the threshold
[12] 
[12] 
[12]     From function macroScalarTransport
[12]     in file macroScalarTransport.C at line 118.
[12] 
FOAM parallel run exiting
[12] 
[76] 
FOAM parallel run exiting
[28] 
[37]     From function macroScalarTransport
[37]     in file macroScalarTransport.C at line 118.[55] [94]     From function macroScalarTransport
[94]     in file macroScalarTransport.C at line 118.[69] 
[76] 
[76] --> FOAM FATAL ERROR: 
[76] Concentration under the threshold
[76] 
[76] 
[76]     From function macroScalarTransport
[76]     in file macroScalarTransport.C at line 118.
[76] 
FOAM parallel run exiting
[76] 
[33] 
[37] 
FOAM parallel run exiting
[37] 

[55] 
[55] --> FOAM FATAL ERROR: 
[55] Concentration under the threshold
[55] 
[55] 
[55]     From function macroScalarTransport
[55]     in file macroScalarTransport.C at line 118.

[94] 
FOAM parallel run exiting
[94] 

[69] 
[69] --> FOAM FATAL ERROR: 
[69] Concentration under the threshold
[69] 

[33] 
[33] --> FOAM FATAL ERROR: 
[33] Concentration under the threshold
[33] [69] 
[69]     From function macroScalarTransport
[69]     in file macroScalarTransport.C at line [25] 
[25] 
[45] [55] 
FOAM parallel run exiting
[55] 
[95] 
[95] 
[95] --> FOAM FATAL ERROR: 
[95] Concentration under the threshold
[95] 
[95] 
118.
[69] 
FOAM parallel run exiting
[69] 

[33] 
[33]     From function macroScalarTransport
[33]     in file macroScalarTransport.C at line 118.
[33] 
FOAM parallel run exiting
[33] 

[45] 
[45] --> FOAM FATAL ERROR: 
[45] Concentration under the threshold
[45] 
[45] 
[45]     From function macroScalarTransport
[45]     in file macroScalarTransport.C[95]     From function macroScalarTransport
[95]     in file macroScalarTransport.C at line 118.[63] [25] --> FOAM FATAL ERROR: 
[25] Concentration under the threshold
[25] 
[25] 
[25]     From function macroScalarTransport
[25]     in file macroScalarTransport.C at line 118.
[25]  at line 118.
[45] 
FOAM parallel run exiting
[45] 

[95] 
FOAM parallel run exiting
[95] 


FOAM parallel run exiting
[25] 
[47] [85] [63] 
[63] --> FOAM FATAL ERROR: 
[63] Concentration under the threshold
[63] 
[63] 
[63]     From function macroScalarTransport[26] 
[47] 
[47] --> FOAM FATAL ERROR: 
[47] Concentration under the threshold
[47] 

[85] 
[85] --> FOAM FATAL ERROR: 
[85] Concentration under the threshold
[85] 
[85] 
[85]     From function macroScalarTransport
[63]     in file macroScalarTransport.C at line 118.
[63] 
FOAM parallel run exiting
[63] 

[26] 
[26] --> FOAM FATAL ERROR: 
[26] Concentration under the threshold
[26] 
[26] [47] 
[47]     From function macroScalarTransport
[47]     in file macroScalarTransport.C at line [84] 
[84] 
[84] --> FOAM FATAL ERROR: 
[84] Concentration under the threshold
[84] 
[26]     From function macroScalarTransport
[26]     in file macroScalarTransport.C at line 118118.
[47] 
FOAM parallel run exiting
[47] 

[84] 
[84]     From function macroScalarTransport
[84]     in file macroScalarTransport.C at line 118.
[84] .
[26] 
FOAM parallel run exiting
[26] 
[4] 
[4] 
[4] --> FOAM FATAL ERROR: 
[4] Concentration under the threshold
[4] 
[4] 
[4]     From function macroScalarTransport
[4]     in file macroScalarTransport.C at line 118.
[4] 
FOAM parallel run exiting
[4] 
[39] 
[85]     in file macroScalarTransport.C at line 118.
[85] 
FOAM parallel run exiting
[85] 
[34] 
[39] 
[39] --> FOAM FATAL ERROR: 
FOAM parallel run exiting
[84] 

[34] 
[34] --> FOAM FATAL ERROR: 
[34] Concentration under the threshold
[34] 
[34] 
[34]     From function macroScalarTransport
[34]     in file 
[39] Concentration under the threshold
[39] 
[39] 
[39]     From function macroScalarTransport
[39]     in file macroScalarTransport.C at line [86] [11] 
[11] 
[11] --> FOAM FATAL ERROR: 
[11] Concentration under the threshold
[11] 
[11] 
[11]     From function macroScalarTransport118.
[39] 
FOAM parallel run exiting
[39] 

[86] 
macroScalarTransport.C at line 118.
[34] 
FOAM parallel run exiting
[34] 

[11]     in file macroScalarTransport.C at line 118.
[11] 
FOAM parallel run exiting
[11] 
[36] 
[86] --> FOAM FATAL ERROR: 
[86] Concentration under the threshold
[86] 
[86] 
[86]     From function macroScalarTransport
[86]     in file macroScalarTransport.C at line 118.[35] [36] 
[36] --> FOAM FATAL ERROR: 
[36] Concentration under the threshold
[36] 
[36] 
[36]     From function macroScalarTransport
[36]     in file macroScalarTransport.C at line 
[86] 
FOAM parallel run exiting
[86] 

[35] 
[35] --> FOAM FATAL ERROR: 
118.
[36] 
FOAM parallel run exiting
[36] 
[35] Concentration under the threshold
[35] 
[35] 
[35]     From function macroScalarTransport
[35]     in file macroScalarTransport.C at line 118.
[46] [35] 
FOAM parallel run exiting
[35] 

[46] 
[46] --> FOAM FATAL ERROR: 
[46] Concentration under the threshold
[46] 
[46] 
[46]     From function macroScalarTransport
[46]     in file macroScalarTransport.C at line 118.
[46] 
FOAM parallel run exiting
[46] 
[52] 
[52] 
[52] --> FOAM FATAL ERROR: 
[52] Concentration under the threshold
[52] 
[52] 
[52]     From function macroScalarTransport
[52]     in file macroScalarTransport.C at line 118.
[52] 
FOAM parallel run exiting
[52] 
[53] 
[53] 
[53] --> FOAM FATAL ERROR: 
[53] Concentration under the threshold
[53] 
[53] 
[53]     From function macroScalarTransport
[53]     in file macroScalarTransport.C at line 118.
[53] 
FOAM parallel run exiting
[53] 
[20] 
[20] 
[20] --> FOAM FATAL ERROR: 
[20] Concentration under the threshold
[20] 
[20] 
[20]     From function macroScalarTransport
[20]     in file macroScalarTransport.C at line 118.
[20] 
FOAM parallel run exiting
[20] 
[50] 
[50] 
[50] --> FOAM FATAL ERROR: 
[50] Concentration under the threshold
[50] 
[50] 
[50]     From function macroScalarTransport
[50]     in file macroScalarTransport.C at line 118.
[50] 
FOAM parallel run exiting
[50] [58] 
[58] 
[58] --> FOAM FATAL ERROR: 
[58] Concentration under the threshold
[58] 
[58] 
[58]     From function macroScalarTransport
[58]     in file macroScalarTransport.C at line 118.
[58] 
FOAM parallel run exiting
[58] 

[61] 
[61] 
[61] --> FOAM FATAL ERROR: 
[61] Concentration under the threshold
[61] 
[61] 
[61]     From function macroScalarTransport
[61]     in file macroScalarTransport.C at line 118.
[61] 
FOAM parallel run exiting
[61] 
[77] 
[77] 
[77] --> FOAM FATAL ERROR: 
[77] Concentration under the threshold
[77] 
[77] 
[77]     From function macroScalarTransport
[77]     in file macroScalarTransport.C at line 118.
[77] 
FOAM parallel run exiting
[77] 
[72] 
[72] 
[72] --> FOAM FATAL ERROR: 
[72] Concentration under the threshold
[72] 
[72] 
[72]     From function macroScalarTransport
[72]     in file macroScalarTransport.C at line 118.
[72] 
FOAM parallel run exiting
[72] 
[5] 
[5] 
[5] --> FOAM FATAL ERROR: 
[5] Concentration under the threshold
[5] 
[5] 
[5]     From function macroScalarTransport
[5]     in file macroScalarTransport.C at line 118.
[5] 
FOAM parallel run exiting
[5] 
[3] 
[3] 
[3] --> FOAM FATAL ERROR: 
[3] Concentration under the threshold
[3] 
[3] 
[3]     From function macroScalarTransport
[3]     in file macroScalarTransport.C at line 118.
[3] 
FOAM parallel run exiting
[3] 
--------------------------------------------------------------------------
MPI_ABORT was invoked on rank 19 in communicator MPI COMMUNICATOR 3 SPLIT FROM 0
with errorcode 1.

NOTE: invoking MPI_ABORT causes Open MPI to kill all MPI processes.
You may or may not see output from other processes, depending on
exactly when Open MPI kills them.
--------------------------------------------------------------------------
[compute085.int.augusta.nottingham.ac.uk:198533] [[26168,0],0] ORTE_ERROR_LOG: Out of resource in file util/show_help.c at line 501
[compute085.int.augusta.nottingham.ac.uk:198533] PMIX ERROR: UNREACHABLE in file server/pmix_server.c at line 2193
[compute085.int.augusta.nottingham.ac.uk:198533] PMIX ERROR: UNREACHABLE in file server/pmix_server.c at line 2193
[compute085.int.augusta.nottingham.ac.uk:198533] PMIX ERROR: UNREACHABLE in file server/pmix_server.c at line 2193
[compute085.int.augusta.nottingham.ac.uk:198533] PMIX ERROR: UNREACHABLE in file server/pmix_server.c at line 2193
[compute085.int.augusta.nottingham.ac.uk:198533] PMIX ERROR: UNREACHABLE in file server/pmix_server.c at line 2193
[compute085.int.augusta.nottingham.ac.uk:198533] PMIX ERROR: UNREACHABLE in file server/pmix_server.c at line 2193
[compute085.int.augusta.nottingham.ac.uk:198533] PMIX ERROR: UNREACHABLE in file server/pmix_server.c at line 2193
[compute085.int.augusta.nottingham.ac.uk:198533] 94 more processes have sent help message help-mpi-api.txt / mpi-abort
[compute085.int.augusta.nottingham.ac.uk:198533] Set MCA parameter "orte_base_help_aggregate" to 0 to see all help / error messages
